
**** 11/07/25 22:27:30 **** PSpice 23.1.0 (30 January 2024) *** ID# 0 ********

 ** Profile: "SCHEMATIC1-bias_point"  [ c:\users\mshar\documents\capstone\simulation\software-defined instrumentation amplifier\softw


 ****     CIRCUIT DESCRIPTION


******************************************************************************




** Creating circuit file "bias_point.cir" 
** WARNING: THIS AUTOMATICALLY GENERATED FILE MAY BE OVERWRITTEN BY SUBSEQUENT SIMULATIONS

*Libraries: 
* Profile Libraries :
* Local Libraries :
* From [PSPICE NETLIST] section of C:\cds_spb_home\cdssetup\OrCAD_PSpiceTIPSpice_Install\23.1.0\PSpice.ini file:
.lib "nom_pspti.lib" 
.lib "nom.lib" 

*Analysis directives: 
.OPTIONS ADVCONV
.OPTIONS FILEMODELSEARCH
.PROBE64 V(alias(*)) I(alias(*)) W(alias(*)) D(alias(*)) NOISE(alias(*)) 
.INC "..\SCHEMATIC1.net" 



**** INCLUDING SCHEMATIC1.net ****
* source SOFTWARE_DEFINED_INSTRUMENTATION_AMPLIFIER
R_R1         VSEN N00840  10k TC=0,0 
R_R2         VOFF+ N00840  10k TC=0,0 
R_R3         N00550 N00586  10k TC=0,0 
R_R4         N00586 VOUT  10k TC=0,0 
R_R5         N00582 N00550  10k TC=0,0 
R_RG         N00578 N00582  10k TC=0,0 
R_R7         N00564 N00578  10k TC=0,0 
R_R8         N00602 N00564  10k TC=0,0 
R_R9         VREF2 N00602  10k TC=0,0 
R_R10         VOFF- N00800  10k TC=0,0 
R_R11         N00800 N00271  10k TC=0,0 
V_V1         VDD 0 5
V_V2         VOFF+ 0 0
V_V3         VOFF- 0 0
V_V7         VREF1 0 0
V_V8         VREF2 0 0
V_V10         0 VSS 5
V_V11         VSEN 0 0.1
X_U1         N00840 N00800 VDD VSS N00271 TLV9102
X_U2         N00271 N00578 VDD VSS N00564 TLV9102
X_U3         VREF2 N00582 VDD VSS N00550 TLV9102
X_U4         N00602 N00586 VDD VSS VOUT TLV9102

**** RESUMING bias_point.cir ****
.END

**** 11/07/25 22:27:30 **** PSpice 23.1.0 (30 January 2024) *** ID# 0 ********

 ** Profile: "SCHEMATIC1-bias_point"  [ c:\users\mshar\documents\capstone\simulation\software-defined instrumentation amplifier\softw


 ****     Diode MODEL PARAMETERS


******************************************************************************




               X_U1.Xe_n.DVN   X_U1.Xi_nn.DVNF X_U1.Xi_np.DVNF X_U2.Xe_n.DVN   
          IS  100.000000E-18  100.000000E-18  100.000000E-18  100.000000E-18 
          KF   31.622780E-12  316.227800E-15  316.227800E-15   31.622780E-12 


               X_U2.Xi_nn.DVNF X_U2.Xi_np.DVNF X_U3.Xe_n.DVN   X_U3.Xi_nn.DVNF 
          IS  100.000000E-18  100.000000E-18  100.000000E-18  100.000000E-18 
          KF  316.227800E-15  316.227800E-15   31.622780E-12  316.227800E-15 


               X_U3.Xi_np.DVNF X_U4.Xe_n.DVN   X_U4.Xi_nn.DVNF X_U4.Xi_np.DVNF 
          IS  100.000000E-18  100.000000E-18  100.000000E-18  100.000000E-18 
          KF  316.227800E-15   31.622780E-12  316.227800E-15  316.227800E-15 


**** 11/07/25 22:27:30 **** PSpice 23.1.0 (30 January 2024) *** ID# 0 ********

 ** Profile: "SCHEMATIC1-bias_point"  [ c:\users\mshar\documents\capstone\simulation\software-defined instrumentation amplifier\softw


 ****     Resistor MODEL PARAMETERS


******************************************************************************




               X_U1.R_NOISELESS 
  T_Measured   27            
   T_Current -273.15         
           R    1            


               X_U2.R_NOISELESS 
  T_Measured   27            
   T_Current -273.15         
           R    1            


               X_U3.R_NOISELESS 
  T_Measured   27            
   T_Current -273.15         
           R    1            


               X_U4.R_NOISELESS 
  T_Measured   27            
   T_Current -273.15         
           R    1            


**** 11/07/25 22:27:30 **** PSpice 23.1.0 (30 January 2024) *** ID# 0 ********

 ** Profile: "SCHEMATIC1-bias_point"  [ c:\users\mshar\documents\capstone\simulation\software-defined instrumentation amplifier\softw


 ****     Voltage Controlled Switch MODEL PARAMETERS


******************************************************************************




               X_U1.BB_SW      X_U1.ESD_SW     X_U1.OL_SW      X_U1.OR_SW      
         RON   50              50               1.000000E-03     .01         
        ROFF    1.000000E+12    1.000000E+12    1.000000E+09    1.000000E+09 
         VON     .7              .25             .9             1.000000E-03 
        VOFF    0               0                .8             0            


               X_U1.S_VSWITCH_1 
         RON   50            
        ROFF    1.000000E+12 
         VON     .5          
        VOFF     .45         


               X_U1.S_VSWITCH_2 
         RON   50            
        ROFF    1.000000E+12 
         VON     .5          
        VOFF     .45         


               X_U1.S_VSWITCH_3 
         RON   50            
        ROFF    1.000000E+12 
         VON     .5          
        VOFF     .45         


               X_U1.S_VSWITCH_4 
         RON   50            
        ROFF    1.000000E+12 
         VON     .5          
        VOFF     .45         


               X_U1.S_VSWITCH_5 
         RON     .01         
        ROFF    1.000000E+12 
         VON     .01         
        VOFF    0            


               X_U1.S_VSWITCH_6 
         RON     .01         
        ROFF    1.000000E+12 
         VON     .01         
        VOFF    0            


               X_U1.S_VSWITCH_7 
         RON    1.000000E-03 
        ROFF    1.000000E+12 
         VON     .5          
        VOFF     .1          


               X_U1.S_VSWITCH_8 
         RON   50            
        ROFF    1.000000E+12 
         VON     .5          
        VOFF     .45         


               X_U1.S_VSWITCH_9                X_U2.BB_SW      X_U2.ESD_SW     
         RON   50                              50              50            
        ROFF    1.000000E+12                    1.000000E+12    1.000000E+12 
         VON     .5                              .7              .25         
        VOFF     .45                            0               0            


               X_U2.OL_SW      X_U2.OR_SW      
         RON    1.000000E-03     .01         
        ROFF    1.000000E+09    1.000000E+09 
         VON     .9             1.000000E-03 
        VOFF     .8             0            


               X_U2.S_VSWITCH_1 
         RON   50            
        ROFF    1.000000E+12 
         VON     .5          
        VOFF     .45         


               X_U2.S_VSWITCH_2 
         RON   50            
        ROFF    1.000000E+12 
         VON     .5          
        VOFF     .45         


               X_U2.S_VSWITCH_3 
         RON   50            
        ROFF    1.000000E+12 
         VON     .5          
        VOFF     .45         


               X_U2.S_VSWITCH_4 
         RON   50            
        ROFF    1.000000E+12 
         VON     .5          
        VOFF     .45         


               X_U2.S_VSWITCH_5 
         RON     .01         
        ROFF    1.000000E+12 
         VON     .01         
        VOFF    0            


               X_U2.S_VSWITCH_6 
         RON     .01         
        ROFF    1.000000E+12 
         VON     .01         
        VOFF    0            


               X_U2.S_VSWITCH_7 
         RON    1.000000E-03 
        ROFF    1.000000E+12 
         VON     .5          
        VOFF     .1          


               X_U2.S_VSWITCH_8 
         RON   50            
        ROFF    1.000000E+12 
         VON     .5          
        VOFF     .45         


               X_U2.S_VSWITCH_9                X_U3.BB_SW      X_U3.ESD_SW     
         RON   50                              50              50            
        ROFF    1.000000E+12                    1.000000E+12    1.000000E+12 
         VON     .5                              .7              .25         
        VOFF     .45                            0               0            


               X_U3.OL_SW      X_U3.OR_SW      
         RON    1.000000E-03     .01         
        ROFF    1.000000E+09    1.000000E+09 
         VON     .9             1.000000E-03 
        VOFF     .8             0            


               X_U3.S_VSWITCH_1 
         RON   50            
        ROFF    1.000000E+12 
         VON     .5          
        VOFF     .45         


               X_U3.S_VSWITCH_2 
         RON   50            
        ROFF    1.000000E+12 
         VON     .5          
        VOFF     .45         


               X_U3.S_VSWITCH_3 
         RON   50            
        ROFF    1.000000E+12 
         VON     .5          
        VOFF     .45         


               X_U3.S_VSWITCH_4 
         RON   50            
        ROFF    1.000000E+12 
         VON     .5          
        VOFF     .45         


               X_U3.S_VSWITCH_5 
         RON     .01         
        ROFF    1.000000E+12 
         VON     .01         
        VOFF    0            


               X_U3.S_VSWITCH_6 
         RON     .01         
        ROFF    1.000000E+12 
         VON     .01         
        VOFF    0            


               X_U3.S_VSWITCH_7 
         RON    1.000000E-03 
        ROFF    1.000000E+12 
         VON     .5          
        VOFF     .1          


               X_U3.S_VSWITCH_8 
         RON   50            
        ROFF    1.000000E+12 
         VON     .5          
        VOFF     .45         


               X_U3.S_VSWITCH_9                X_U4.BB_SW      X_U4.ESD_SW     
         RON   50                              50              50            
        ROFF    1.000000E+12                    1.000000E+12    1.000000E+12 
         VON     .5                              .7              .25         
        VOFF     .45                            0               0            


               X_U4.OL_SW      X_U4.OR_SW      
         RON    1.000000E-03     .01         
        ROFF    1.000000E+09    1.000000E+09 
         VON     .9             1.000000E-03 
        VOFF     .8             0            


               X_U4.S_VSWITCH_1 
         RON   50            
        ROFF    1.000000E+12 
         VON     .5          
        VOFF     .45         


               X_U4.S_VSWITCH_2 
         RON   50            
        ROFF    1.000000E+12 
         VON     .5          
        VOFF     .45         


               X_U4.S_VSWITCH_3 
         RON   50            
        ROFF    1.000000E+12 
         VON     .5          
        VOFF     .45         


               X_U4.S_VSWITCH_4 
         RON   50            
        ROFF    1.000000E+12 
         VON     .5          
        VOFF     .45         


               X_U4.S_VSWITCH_5 
         RON     .01         
        ROFF    1.000000E+12 
         VON     .01         
        VOFF    0            


               X_U4.S_VSWITCH_6 
         RON     .01         
        ROFF    1.000000E+12 
         VON     .01         
        VOFF    0            


               X_U4.S_VSWITCH_7 
         RON    1.000000E-03 
        ROFF    1.000000E+12 
         VON     .5          
        VOFF     .1          


               X_U4.S_VSWITCH_8 
         RON   50            
        ROFF    1.000000E+12 
         VON     .5          
        VOFF     .45         


               X_U4.S_VSWITCH_9 
         RON   50            
        ROFF    1.000000E+12 
         VON     .5          
        VOFF     .45         


**** 11/07/25 22:27:30 **** PSpice 23.1.0 (30 January 2024) *** ID# 0 ********

 ** Profile: "SCHEMATIC1-bias_point"  [ c:\users\mshar\documents\capstone\simulation\software-defined instrumentation amplifier\softw


 ****     SMALL SIGNAL BIAS SOLUTION       TEMPERATURE =   27.000 DEG C


******************************************************************************



 NODE   VOLTAGE     NODE   VOLTAGE     NODE   VOLTAGE     NODE   VOLTAGE


(  VDD)    5.0000  (  VSS)   -5.0000  ( VOUT)     .3024  ( VSEN)     .1000      

(VOFF+)    0.0000  (VOFF-)    0.0000  (VREF1)    0.0000  (VREF2)    0.0000      

(N00271)     .1006 (N00550)    -.1003 (N00564)     .2015 (N00578)     .1009     

(N00582) 297.5E-06 (N00586)     .1011 (N00602)     .1008 (N00800)     .0503     

(N00840)     .0500 (X_U1.21)   -4.9499                   (X_U1.22)     .0503    

(X_U1.23)     .0500                   (X_U1.24)-500.6E-09                       

(X_U1.25)   -1.8750                   (X_U1.26) 500.0E-09                       

(X_U1.27)     .8000                   (X_U1.28)     .1352                       

(X_U1.29)     .1352                   (X_U1.30)     .0503                       

(X_U1.31)-3.800E-12                   (X_U1.32)-3.800E-12                       

(X_U1.33)-3.800E-12                   (X_U1.34)-3.800E-12                       

(X_U1.35)    2.0352                   (X_U1.36)    2.0352                       

(X_U1.37)   -1.7648                   (X_U1.38)   -1.7648                       

(X_U1.39)    3.1187                   (X_U1.40) 405.6E-06                       

(X_U1.41) 5.431E-06                   (X_U1.42)     .0503                       

(X_U1.43)     .0503                   (X_U1.44)    3.1200                       

(X_U1.45)    3.1203                   (X_U1.46)    3.1203                       

(X_U1.47)    3.1203                   (X_U1.48)     .3467                       

(X_U1.49)    3.1203                   (X_U1.50)     .1006                       

(X_U1.51) 3.961E-06                   (X_U1.52)     .0012                       

(X_U1.53)   80.0000                   (X_U1.54)  -80.0000                       

(X_U1.55)-38.68E-18                   (X_U1.56)-38.68E-18                       

(X_U1.57)    2.0352                   (X_U1.58)   -1.7648                       

(X_U1.59)  400.0000                   (X_U1.60) -400.0000                       

(X_U1.61)     .1352                   (X_U1.62)-38.68E-18                       

(X_U1.63)-38.68E-18                   (X_U1.64)-38.68E-18                       

(X_U1.65)-38.68E-18                   (X_U1.66)-38.68E-18                       

(X_U1.67)-38.68E-18                   (X_U1.68)    4.9984                       

(X_U1.69)    4.9984                   (X_U1.70)   -4.9499                       

(X_U1.71)-38.68E-18                   (X_U1.72)-38.68E-18                       

(X_U1.73)-38.68E-18                   (X_U1.74)-38.68E-18                       

(X_U1.75)-38.68E-18                   (X_U1.76)     .0050                       

(X_U1.77)     .1006                   (X_U1.78)     .1352                       

(X_U1.79)     .0503                   (X_U1.80)   -5.2000                       

(X_U1.81)    5.2000                   (X_U1.82)     .0503                       

(X_U1.83)-38.68E-18                   (X_U1.84)   -5.0000                       

(X_U1.85)    5.0000                   (X_U1.86)     .0503                       

(X_U1.87)     .0503                   (X_U2.21)   -4.9497                       

(X_U2.22)     .1009                   (X_U2.23)     .1006                       

(X_U2.24)-500.6E-09                   (X_U2.25)   -1.8750                       

(X_U2.26) 500.0E-09                   (X_U2.27)     .8000                       

(X_U2.28)     .3156                   (X_U2.29)     .3156                       

(X_U2.30)     .1009                   (X_U2.31)-3.800E-12                       

(X_U2.32)-3.800E-12                   (X_U2.33)-3.800E-12                       

(X_U2.34)-3.800E-12                   (X_U2.35)    2.2156                       

(X_U2.36)    2.2156                   (X_U2.37)   -1.5844                       

(X_U2.38)   -1.5844                   (X_U2.39)   10.2710                       

(X_U2.40)     .0013                   (X_U2.41) 12.67E-06                       

(X_U2.42)     .1009                   (X_U2.43)     .1009                       

(X_U2.44)   10.2760                   (X_U2.45)   10.2770                       

(X_U2.46)   10.2770                   (X_U2.47)   10.2770                       

(X_U2.48)    1.1419                   (X_U2.49)   10.2770                       

(X_U2.50)     .2015                   (X_U2.51) 7.970E-06                       

(X_U2.52)     .0024                   (X_U2.53)   80.0000                       

(X_U2.54)  -80.0000                   (X_U2.55)-32.10E-21                       

(X_U2.56)-32.10E-21                   (X_U2.57)    2.2156                       

(X_U2.58)   -1.5844                   (X_U2.59)  400.0000                       

(X_U2.60) -400.0000                   (X_U2.61)     .3156                       

(X_U2.62)-32.10E-21                   (X_U2.63)-32.10E-21                       

(X_U2.64)-32.10E-21                   (X_U2.65)-32.10E-21                       

(X_U2.66)-32.10E-21                   (X_U2.67)-32.10E-21                       

(X_U2.68)    4.9981                   (X_U2.69)    4.9981                       

(X_U2.70)   -4.9497                   (X_U2.71)-32.10E-21                       

(X_U2.72)-32.10E-21                   (X_U2.73)-32.10E-21                       

(X_U2.74)-32.10E-21                   (X_U2.75)-32.10E-21                       

(X_U2.76)     .0201                   (X_U2.77)     .2015                       

(X_U2.78)     .3156                   (X_U2.79)     .1009                       

(X_U2.80)   -5.2000                   (X_U2.81)    5.2000                       

(X_U2.82)     .1009                   (X_U2.83)-32.10E-21                       

(X_U2.84)   -5.0000                   (X_U2.85)    5.0000                       

(X_U2.86)     .1009                   (X_U2.87)     .1009                       

(X_U3.21)   -4.9495                   (X_U3.22) 296.4E-06                       

(X_U3.23)-100.0E-15                   (X_U3.24)-500.6E-09                       

(X_U3.25)   -1.8750                   (X_U3.26) 500.0E-09                       

(X_U3.27)     .8000                   (X_U3.28)    -.2467                       

(X_U3.29)    -.2467                   (X_U3.30) 296.4E-06                       

(X_U3.31)-3.800E-12                   (X_U3.32)-3.800E-12                       

(X_U3.33)-3.800E-12                   (X_U3.34)-3.800E-12                       

(X_U3.35)    1.6533                   (X_U3.36)    1.6533                       

(X_U3.37)   -2.1467                   (X_U3.38)   -2.1467                       

(X_U3.39)  -13.1830                   (X_U3.40)    -.0017                       

(X_U3.41)-9.908E-06                   (X_U3.42) 297.4E-06                       

(X_U3.43) 297.5E-06                   (X_U3.44)  -13.1890                       

(X_U3.45)  -13.1900                   (X_U3.46)  -13.1900                       

(X_U3.47)  -13.1900                   (X_U3.48)   -1.4656                       

(X_U3.49)  -13.1900                   (X_U3.50)    -.1003                       

(X_U3.51)-7.971E-18                   (X_U3.52)-2.380E-15                       

(X_U3.53)   80.0000                   (X_U3.54)  -80.0000                       

(X_U3.55)-48.14E-21                   (X_U3.56)-48.14E-21                       

(X_U3.57)    1.6533                   (X_U3.58)   -2.1467                       

(X_U3.59)  400.0000                   (X_U3.60) -400.0000                       

(X_U3.61)    -.2467                   (X_U3.62)-48.14E-21                       

(X_U3.63)-48.14E-21                   (X_U3.64)-48.14E-21                       

(X_U3.65)-48.14E-21                   (X_U3.66)-48.14E-21                       

(X_U3.67)-48.14E-21                   (X_U3.68)    4.9978                       

(X_U3.69)    4.9978                   (X_U3.70)   -4.9495                       

(X_U3.71)-48.14E-21                   (X_U3.72)-48.14E-21                       

(X_U3.73)-48.14E-21                   (X_U3.74)-48.14E-21                       

(X_U3.75)-48.14E-21                   (X_U3.76)    -.0302                       

(X_U3.77)    -.1003                   (X_U3.78)    -.2467                       

(X_U3.79) 297.4E-06                   (X_U3.80)   -5.2000                       

(X_U3.81)    5.2000                   (X_U3.82) 297.4E-06                       

(X_U3.83)-48.14E-21                   (X_U3.84)   -5.0000                       

(X_U3.85)    5.0000                   (X_U3.86) 296.4E-06                       

(X_U3.87) 296.4E-06                   (X_U4.21)   -4.9497                       

(X_U4.22)     .1011                   (X_U4.23)     .1008                       

(X_U4.24)-500.6E-09                   (X_U4.25)   -1.8750                       

(X_U4.26) 500.0E-09                   (X_U4.27)     .8000                       

(X_U4.28)     .4288                   (X_U4.29)     .4288                       

(X_U4.30)     .1011                   (X_U4.31)-3.800E-12                       

(X_U4.32)-3.800E-12                   (X_U4.33)-3.800E-12                       

(X_U4.34)-3.800E-12                   (X_U4.35)    2.3288                       

(X_U4.36)    2.3288                   (X_U4.37)   -1.4712                       

(X_U4.38)   -1.4712                   (X_U4.39)   11.3820                       

(X_U4.40)     .0015                   (X_U4.41) 17.22E-06                       

(X_U4.42)     .1011                   (X_U4.43)     .1011                       

(X_U4.44)   11.3870                   (X_U4.45)   11.3880                       

(X_U4.46)   11.3880                   (X_U4.47)   11.3880                       

(X_U4.48)    1.2653                   (X_U4.49)   11.3880                       

(X_U4.50)     .3024                   (X_U4.51) 7.983E-06                       

(X_U4.52)     .0024                   (X_U4.53)   80.0000                       

(X_U4.54)  -80.0000                   (X_U4.55)-32.10E-21                       

(X_U4.56)-32.10E-21                   (X_U4.57)    2.3288                       

(X_U4.58)   -1.4712                   (X_U4.59)  400.0000                       

(X_U4.60) -400.0000                   (X_U4.61)     .4288                       

(X_U4.62)-32.10E-21                   (X_U4.63)-32.10E-21                       

(X_U4.64)-32.10E-21                   (X_U4.65)-32.10E-21                       

(X_U4.66)-32.10E-21                   (X_U4.67)-32.10E-21                       

(X_U4.68)    4.9981                   (X_U4.69)    4.9981                       

(X_U4.70)   -4.9497                   (X_U4.71)-32.10E-21                       

(X_U4.72)-32.10E-21                   (X_U4.73)-32.10E-21                       

(X_U4.74)-32.10E-21                   (X_U4.75)-32.10E-21                       

(X_U4.76)     .0201                   (X_U4.77)     .3024                       

(X_U4.78)     .4288                   (X_U4.79)     .1011                       

(X_U4.80)   -5.2000                   (X_U4.81)    5.2000                       

(X_U4.82)     .1011                   (X_U4.83)-32.10E-21                       

(X_U4.84)   -5.0000                   (X_U4.85)    5.0000                       

(X_U4.86)     .1011                   (X_U4.87)     .1011                       

(X_U1.MID)-38.68E-18                  (X_U2.MID)-32.10E-21                      

(X_U3.MID)-48.14E-21                  (X_U4.MID)-32.10E-21                      

(X_U1.ESDn)     .0503                 (X_U1.ESDp)     .0500                     

(X_U1.VCLP)     .1352                 (X_U2.ESDn)     .1009                     

(X_U2.ESDp)     .1006                 (X_U2.VCLP)     .3156                     

(X_U3.ESDn) 297.5E-06                 (X_U3.ESDp)-100.0E-15                     

(X_U3.VCLP)    -.2467                 (X_U4.ESDn)     .1011                     

(X_U4.ESDp)     .1008                 (X_U4.VCLP)     .4288                     

(X_U1.CLAMP)     .1352                (X_U1.SW_OL)-38.68E-18                    

(X_U1.VCC_B)    5.0000                (X_U1.VEE_B)   -5.0000                    

(X_U1.VIMON)     .0050                (X_U2.CLAMP)     .3156                    

(X_U2.SW_OL)-32.10E-21                (X_U2.VCC_B)    5.0000                    

(X_U2.VEE_B)   -5.0000                (X_U2.VIMON)     .0201                    

(X_U3.CLAMP)    -.2467                (X_U3.SW_OL)-48.14E-21                    

(X_U3.VCC_B)    5.0000                (X_U3.VEE_B)   -5.0000                    

(X_U3.VIMON)    -.0302                (X_U4.CLAMP)     .4288                    

(X_U4.SW_OL)-32.10E-21                (X_U4.VCC_B)    5.0000                    

(X_U4.VEE_B)   -5.0000                (X_U4.VIMON)     .0201                    

(X_U1.VOUT_S)     .1006               (X_U1.VSENSE)     .1352                   

(X_U1.Xe_n.3)    0.0000               (X_U1.Xe_n.4)    0.0000                   

(X_U1.Xe_n.5)    0.0000               (X_U1.Xe_n.6)    0.0000                   

(X_U1.Xe_n.7)     .8338               (X_U1.Xe_n.8)     .8338                   

(X_U2.VOUT_S)     .2015               (X_U2.VSENSE)     .3156                   

(X_U2.Xe_n.3)    0.0000               (X_U2.Xe_n.4)    0.0000                   

(X_U2.Xe_n.5)    0.0000               (X_U2.Xe_n.6)    0.0000                   

(X_U2.Xe_n.7)     .8338               (X_U2.Xe_n.8)     .8338                   

(X_U3.VOUT_S)    -.1003               (X_U3.VSENSE)    -.2467                   

(X_U3.Xe_n.3)    0.0000               (X_U3.Xe_n.4)    0.0000                   

(X_U3.Xe_n.5)    0.0000               (X_U3.Xe_n.6)    0.0000                   

(X_U3.Xe_n.7)     .8338               (X_U3.Xe_n.8)     .8338                   

(X_U4.VOUT_S)     .3024               (X_U4.VSENSE)     .4288                   

(X_U4.Xe_n.3)    0.0000               (X_U4.Xe_n.4)    0.0000                   

(X_U4.Xe_n.5)    0.0000               (X_U4.Xe_n.6)    0.0000                   

(X_U4.Xe_n.7)     .8338               (X_U4.Xe_n.8)     .8338                   

(X_U1.VCC_CLP)    4.9984              (X_U1.VEE_CLP)   -4.9499                  

(X_U1.Xi_nn.3)    0.0000              (X_U1.Xi_nn.4)    0.0000                  

(X_U1.Xi_nn.5)    0.0000              (X_U1.Xi_nn.6)    0.0000                  

(X_U1.Xi_nn.7)     .8338              (X_U1.Xi_nn.8)     .8338                  

(X_U1.Xi_np.3)    0.0000              (X_U1.Xi_np.4)    0.0000                  

(X_U1.Xi_np.5)    0.0000              (X_U1.Xi_np.6)    0.0000                  

(X_U1.Xi_np.7)     .8338              (X_U1.Xi_np.8)     .8338                  

(X_U2.VCC_CLP)    4.9981              (X_U2.VEE_CLP)   -4.9497                  

(X_U2.Xi_nn.3)    0.0000              (X_U2.Xi_nn.4)    0.0000                  

(X_U2.Xi_nn.5)    0.0000              (X_U2.Xi_nn.6)    0.0000                  

(X_U2.Xi_nn.7)     .8338              (X_U2.Xi_nn.8)     .8338                  

(X_U2.Xi_np.3)    0.0000              (X_U2.Xi_np.4)    0.0000                  

(X_U2.Xi_np.5)    0.0000              (X_U2.Xi_np.6)    0.0000                  

(X_U2.Xi_np.7)     .8338              (X_U2.Xi_np.8)     .8338                  

(X_U3.VCC_CLP)    4.9978              (X_U3.VEE_CLP)   -4.9495                  

(X_U3.Xi_nn.3)    0.0000              (X_U3.Xi_nn.4)    0.0000                  

(X_U3.Xi_nn.5)    0.0000              (X_U3.Xi_nn.6)    0.0000                  

(X_U3.Xi_nn.7)     .8338              (X_U3.Xi_nn.8)     .8338                  

(X_U3.Xi_np.3)    0.0000              (X_U3.Xi_np.4)    0.0000                  

(X_U3.Xi_np.5)    0.0000              (X_U3.Xi_np.6)    0.0000                  

(X_U3.Xi_np.7)     .8338              (X_U3.Xi_np.8)     .8338                  

(X_U4.VCC_CLP)    4.9981              (X_U4.VEE_CLP)   -4.9497                  

(X_U4.Xi_nn.3)    0.0000              (X_U4.Xi_nn.4)    0.0000                  

(X_U4.Xi_nn.5)    0.0000              (X_U4.Xi_nn.6)    0.0000                  

(X_U4.Xi_nn.7)     .8338              (X_U4.Xi_nn.8)     .8338                  

(X_U4.Xi_np.3)    0.0000              (X_U4.Xi_np.4)    0.0000                  

(X_U4.Xi_np.5)    0.0000              (X_U4.Xi_np.6)    0.0000                  

(X_U4.Xi_np.7)     .8338              (X_U4.Xi_np.8)     .8338                  

(X_U1.CL_CLAMP)     .1352             (X_U2.CL_CLAMP)     .3156                 

(X_U3.CL_CLAMP)    -.2467             (X_U4.CL_CLAMP)     .4288                 

(X_U1.CLAW_CLAMP)     .1352           (X_U1.XVOS_VCM.1)     .0503               

(X_U2.CLAW_CLAMP)     .3156           (X_U2.XVOS_VCM.1)     .1009               

(X_U3.CLAW_CLAMP)    -.2467           (X_U3.XVOS_VCM.1) 296.4E-06               

(X_U4.CLAW_CLAMP)     .4288           (X_U4.XVOS_VCM.1)     .1011           




    VOLTAGE SOURCE CURRENTS
    NAME         CURRENT

    V_V1        -5.253E-04
    V_V2         5.000E-06
    V_V3         5.030E-06
    V_V7         0.000E+00
    V_V8         1.008E-05
    V_V10       -5.102E-04
    V_V11       -5.000E-06
    X_U1.V_GRp  -4.000E-10
    X_U1.V_GRn   4.000E-10
    X_U1.V_ISCp  -8.000E-11
    X_U1.V_ISCn   8.000E-11
    X_U1.V_ORn   0.000E+00
    X_U1.V11     3.800E-12
    X_U1.V_ORp   0.000E+00
    X_U1.V12    -3.800E-12
    X_U1.V4      5.030E-06
    X_U1.VCM_MIN   5.200E-12
    X_U1.VCM_MAX  -4.547E-12
    X_U2.V_GRp  -4.000E-10
    X_U2.V_GRn   4.000E-10
    X_U2.V_ISCp  -8.000E-11
    X_U2.V_ISCn   8.000E-11
    X_U2.V_ORn   0.000E+00
    X_U2.V11     3.800E-12
    X_U2.V_ORp   0.000E+00
    X_U2.V12    -3.800E-12
    X_U2.V4      2.014E-05
    X_U2.VCM_MIN   5.200E-12
    X_U2.VCM_MAX  -5.200E-12
    X_U3.V_GRp  -4.000E-10
    X_U3.V_GRn   4.000E-10
    X_U3.V_ISCp  -8.000E-11
    X_U3.V_ISCn   8.000E-11
    X_U3.V_ORn   0.000E+00
    X_U3.V11     3.800E-12
    X_U3.V_ORp   0.000E+00
    X_U3.V12    -3.800E-12
    X_U3.V4     -3.020E-05
    X_U3.VCM_MIN   5.201E-12
    X_U3.VCM_MAX  -5.201E-12
    X_U4.V_GRp  -4.000E-10
    X_U4.V_GRn   4.000E-10
    X_U4.V_ISCp  -8.000E-11
    X_U4.V_ISCn   8.000E-11
    X_U4.V_ORn   0.000E+00
    X_U4.V11     3.800E-12
    X_U4.V_ORp   0.000E+00
    X_U4.V12    -3.800E-12
    X_U4.V4      2.014E-05
    X_U4.VCM_MIN   5.201E-12
    X_U4.VCM_MAX  -5.201E-12

    TOTAL POWER DISSIPATION   5.18E-03  WATTS



          JOB CONCLUDED

**** 11/07/25 22:27:30 **** PSpice 23.1.0 (30 January 2024) *** ID# 0 ********

 ** Profile: "SCHEMATIC1-bias_point"  [ c:\users\mshar\documents\capstone\simulation\software-defined instrumentation amplifier\softw


 ****     JOB STATISTICS SUMMARY


******************************************************************************



  Total job time (using Solver 1)   =        1.99
