
**** 11/07/25 22:26:53 **** PSpice 23.1.0 (30 January 2024) *** ID# 0 ********

 ** Profile: "SCHEMATIC1-bias_point"  [ c:\users\mshar\documents\capstone\simulation\software-defined instrumentation amplifier\softw


 ****     CIRCUIT DESCRIPTION


******************************************************************************




** Creating circuit file "bias_point.cir" 
** WARNING: THIS AUTOMATICALLY GENERATED FILE MAY BE OVERWRITTEN BY SUBSEQUENT SIMULATIONS

*Libraries: 
* Profile Libraries :
* Local Libraries :
* From [PSPICE NETLIST] section of C:\cds_spb_home\cdssetup\OrCAD_PSpiceTIPSpice_Install\23.1.0\PSpice.ini file:
.lib "nom_pspti.lib" 
.lib "nom.lib" 

*Analysis directives: 
.OPTIONS ADVCONV
.OPTIONS FILEMODELSEARCH
.PROBE64 V(alias(*)) I(alias(*)) W(alias(*)) D(alias(*)) NOISE(alias(*)) 
.INC "..\SCHEMATIC1.net" 



**** INCLUDING SCHEMATIC1.net ****
* source SOFTWARE_DEFINED_INSTRUMENTATION_AMPLIFIER
R_R1         VSEN N00840  10k TC=0,0 
R_R2         VOFF+ N00840  10k TC=0,0 
R_R3         N00550 N00586  10k TC=0,0 
R_R4         N00586 VOUT  10k TC=0,0 
R_R5         N00582 N00550  10k TC=0,0 
R_RG         N00578 N00582  10k TC=0,0 
R_R7         N00564 N00578  10k TC=0,0 
R_R8         N00602 N00564  10k TC=0,0 
R_R9         VREF2 N00602  10k TC=0,0 
R_R10         VOFF- N00800  10k TC=0,0 
R_R11         N00800 N00271  10k TC=0,0 
V_V1         VDD 0 5
V_V2         VOFF+ 0 0
V_V3         VOFF- 0 0
V_V7         VREF1 0 0
V_V8         VREF2 0 0
V_V10         0 VSS -0.5
V_V11         VSEN 0 0.1
X_U1         N00840 N00800 VDD VSS N00271 TLV9102
X_U2         N00271 N00578 VDD VSS N00564 TLV9102
X_U3         VREF2 N00582 VDD VSS N00550 TLV9102
X_U4         N00602 N00586 VDD VSS VOUT TLV9102

**** RESUMING bias_point.cir ****
.END

**** 11/07/25 22:26:53 **** PSpice 23.1.0 (30 January 2024) *** ID# 0 ********

 ** Profile: "SCHEMATIC1-bias_point"  [ c:\users\mshar\documents\capstone\simulation\software-defined instrumentation amplifier\softw


 ****     Diode MODEL PARAMETERS


******************************************************************************




               X_U1.Xe_n.DVN   X_U1.Xi_nn.DVNF X_U1.Xi_np.DVNF X_U2.Xe_n.DVN   
          IS  100.000000E-18  100.000000E-18  100.000000E-18  100.000000E-18 
          KF   31.622780E-12  316.227800E-15  316.227800E-15   31.622780E-12 


               X_U2.Xi_nn.DVNF X_U2.Xi_np.DVNF X_U3.Xe_n.DVN   X_U3.Xi_nn.DVNF 
          IS  100.000000E-18  100.000000E-18  100.000000E-18  100.000000E-18 
          KF  316.227800E-15  316.227800E-15   31.622780E-12  316.227800E-15 


               X_U3.Xi_np.DVNF X_U4.Xe_n.DVN   X_U4.Xi_nn.DVNF X_U4.Xi_np.DVNF 
          IS  100.000000E-18  100.000000E-18  100.000000E-18  100.000000E-18 
          KF  316.227800E-15   31.622780E-12  316.227800E-15  316.227800E-15 


**** 11/07/25 22:26:53 **** PSpice 23.1.0 (30 January 2024) *** ID# 0 ********

 ** Profile: "SCHEMATIC1-bias_point"  [ c:\users\mshar\documents\capstone\simulation\software-defined instrumentation amplifier\softw


 ****     Resistor MODEL PARAMETERS


******************************************************************************




               X_U1.R_NOISELESS 
  T_Measured   27            
   T_Current -273.15         
           R    1            


               X_U2.R_NOISELESS 
  T_Measured   27            
   T_Current -273.15         
           R    1            


               X_U3.R_NOISELESS 
  T_Measured   27            
   T_Current -273.15         
           R    1            


               X_U4.R_NOISELESS 
  T_Measured   27            
   T_Current -273.15         
           R    1            


**** 11/07/25 22:26:53 **** PSpice 23.1.0 (30 January 2024) *** ID# 0 ********

 ** Profile: "SCHEMATIC1-bias_point"  [ c:\users\mshar\documents\capstone\simulation\software-defined instrumentation amplifier\softw


 ****     Voltage Controlled Switch MODEL PARAMETERS


******************************************************************************




               X_U1.BB_SW      X_U1.ESD_SW     X_U1.OL_SW      X_U1.OR_SW      
         RON   50              50               1.000000E-03     .01         
        ROFF    1.000000E+12    1.000000E+12    1.000000E+09    1.000000E+09 
         VON     .7              .25             .9             1.000000E-03 
        VOFF    0               0                .8             0            


               X_U1.S_VSWITCH_1 
         RON   50            
        ROFF    1.000000E+12 
         VON     .5          
        VOFF     .45         


               X_U1.S_VSWITCH_2 
         RON   50            
        ROFF    1.000000E+12 
         VON     .5          
        VOFF     .45         


               X_U1.S_VSWITCH_3 
         RON   50            
        ROFF    1.000000E+12 
         VON     .5          
        VOFF     .45         


               X_U1.S_VSWITCH_4 
         RON   50            
        ROFF    1.000000E+12 
         VON     .5          
        VOFF     .45         


               X_U1.S_VSWITCH_5 
         RON     .01         
        ROFF    1.000000E+12 
         VON     .01         
        VOFF    0            


               X_U1.S_VSWITCH_6 
         RON     .01         
        ROFF    1.000000E+12 
         VON     .01         
        VOFF    0            


               X_U1.S_VSWITCH_7 
         RON    1.000000E-03 
        ROFF    1.000000E+12 
         VON     .5          
        VOFF     .1          


               X_U1.S_VSWITCH_8 
         RON   50            
        ROFF    1.000000E+12 
         VON     .5          
        VOFF     .45         


               X_U1.S_VSWITCH_9                X_U2.BB_SW      X_U2.ESD_SW     
         RON   50                              50              50            
        ROFF    1.000000E+12                    1.000000E+12    1.000000E+12 
         VON     .5                              .7              .25         
        VOFF     .45                            0               0            


               X_U2.OL_SW      X_U2.OR_SW      
         RON    1.000000E-03     .01         
        ROFF    1.000000E+09    1.000000E+09 
         VON     .9             1.000000E-03 
        VOFF     .8             0            


               X_U2.S_VSWITCH_1 
         RON   50            
        ROFF    1.000000E+12 
         VON     .5          
        VOFF     .45         


               X_U2.S_VSWITCH_2 
         RON   50            
        ROFF    1.000000E+12 
         VON     .5          
        VOFF     .45         


               X_U2.S_VSWITCH_3 
         RON   50            
        ROFF    1.000000E+12 
         VON     .5          
        VOFF     .45         


               X_U2.S_VSWITCH_4 
         RON   50            
        ROFF    1.000000E+12 
         VON     .5          
        VOFF     .45         


               X_U2.S_VSWITCH_5 
         RON     .01         
        ROFF    1.000000E+12 
         VON     .01         
        VOFF    0            


               X_U2.S_VSWITCH_6 
         RON     .01         
        ROFF    1.000000E+12 
         VON     .01         
        VOFF    0            


               X_U2.S_VSWITCH_7 
         RON    1.000000E-03 
        ROFF    1.000000E+12 
         VON     .5          
        VOFF     .1          


               X_U2.S_VSWITCH_8 
         RON   50            
        ROFF    1.000000E+12 
         VON     .5          
        VOFF     .45         


               X_U2.S_VSWITCH_9                X_U3.BB_SW      X_U3.ESD_SW     
         RON   50                              50              50            
        ROFF    1.000000E+12                    1.000000E+12    1.000000E+12 
         VON     .5                              .7              .25         
        VOFF     .45                            0               0            


               X_U3.OL_SW      X_U3.OR_SW      
         RON    1.000000E-03     .01         
        ROFF    1.000000E+09    1.000000E+09 
         VON     .9             1.000000E-03 
        VOFF     .8             0            


               X_U3.S_VSWITCH_1 
         RON   50            
        ROFF    1.000000E+12 
         VON     .5          
        VOFF     .45         


               X_U3.S_VSWITCH_2 
         RON   50            
        ROFF    1.000000E+12 
         VON     .5          
        VOFF     .45         


               X_U3.S_VSWITCH_3 
         RON   50            
        ROFF    1.000000E+12 
         VON     .5          
        VOFF     .45         


               X_U3.S_VSWITCH_4 
         RON   50            
        ROFF    1.000000E+12 
         VON     .5          
        VOFF     .45         


               X_U3.S_VSWITCH_5 
         RON     .01         
        ROFF    1.000000E+12 
         VON     .01         
        VOFF    0            


               X_U3.S_VSWITCH_6 
         RON     .01         
        ROFF    1.000000E+12 
         VON     .01         
        VOFF    0            


               X_U3.S_VSWITCH_7 
         RON    1.000000E-03 
        ROFF    1.000000E+12 
         VON     .5          
        VOFF     .1          


               X_U3.S_VSWITCH_8 
         RON   50            
        ROFF    1.000000E+12 
         VON     .5          
        VOFF     .45         


               X_U3.S_VSWITCH_9                X_U4.BB_SW      X_U4.ESD_SW     
         RON   50                              50              50            
        ROFF    1.000000E+12                    1.000000E+12    1.000000E+12 
         VON     .5                              .7              .25         
        VOFF     .45                            0               0            


               X_U4.OL_SW      X_U4.OR_SW      
         RON    1.000000E-03     .01         
        ROFF    1.000000E+09    1.000000E+09 
         VON     .9             1.000000E-03 
        VOFF     .8             0            


               X_U4.S_VSWITCH_1 
         RON   50            
        ROFF    1.000000E+12 
         VON     .5          
        VOFF     .45         


               X_U4.S_VSWITCH_2 
         RON   50            
        ROFF    1.000000E+12 
         VON     .5          
        VOFF     .45         


               X_U4.S_VSWITCH_3 
         RON   50            
        ROFF    1.000000E+12 
         VON     .5          
        VOFF     .45         


               X_U4.S_VSWITCH_4 
         RON   50            
        ROFF    1.000000E+12 
         VON     .5          
        VOFF     .45         


               X_U4.S_VSWITCH_5 
         RON     .01         
        ROFF    1.000000E+12 
         VON     .01         
        VOFF    0            


               X_U4.S_VSWITCH_6 
         RON     .01         
        ROFF    1.000000E+12 
         VON     .01         
        VOFF    0            


               X_U4.S_VSWITCH_7 
         RON    1.000000E-03 
        ROFF    1.000000E+12 
         VON     .5          
        VOFF     .1          


               X_U4.S_VSWITCH_8 
         RON   50            
        ROFF    1.000000E+12 
         VON     .5          
        VOFF     .45         


               X_U4.S_VSWITCH_9 
         RON   50            
        ROFF    1.000000E+12 
         VON     .5          
        VOFF     .45         


Starting pseudo-transient algorithm.

INFO(ORPSIM-16594): To improve Pseudotransient Convergence and Performance, set following options to relax stabilization criteria for capacitor currents and inductor voltages: PTRANABSTOL=1e-5, PTRANVNTOL=1e-4

ERROR -- Convergence problem in bias point calculation


  Last node voltages tried were:

 NODE   VOLTAGE     NODE   VOLTAGE     NODE   VOLTAGE     NODE   VOLTAGE


(  VDD)    5.0000  (  VSS)     .5000  ( VOUT)     .4985  ( VSEN)     .1000      

(VOFF+)    0.0000  (VOFF-)    0.0000  (VREF1)    0.0000  (VREF2)    0.0000      

(N00271)     .0975 (N00550)     .4990 (N00564)     .4986 (N00578)     .0127     

(N00582)     .1783 (N00586)     .3151 (N00602)     .2665 (N00800)     .2228     

(N00840)     .1522 (X_U1.21)     .5502                   (X_U1.22)     .1525    

(X_U1.23)     .1522                   (X_U1.24)     .1772                       

(X_U1.25)     .1809                   (X_U1.26)     .7733                       

(X_U1.27)     .7876                   (X_U1.28)     .0074                       

(X_U1.29)     .1153                   (X_U1.30)     .1525                       

(X_U1.31) 402.7E-09                   (X_U1.32) 402.7E-09                       

(X_U1.33)  141.8500                   (X_U1.34)  141.4800                       

(X_U1.35)  148.8900                   (X_U1.36)  148.8900                       

(X_U1.37)    3.6155                   (X_U1.38)  145.0900                       

(X_U1.39)-48.00E+03                   (X_U1.40)  -12.0050                       

(X_U1.41)   52.9150                   (X_U1.42)     .7519                       

(X_U1.43)     .2228                   (X_U1.44) 72.98E+03                       

(X_U1.45) 72.97E+03                   (X_U1.46) 1144.2000                       

(X_U1.47) 87.33E+03                   (X_U1.48) 9704.3000                       

(X_U1.49) 9704.4000                   (X_U1.50)     .0975                       

(X_U1.51)     .0033                   (X_U1.52)     .0036                       

(X_U1.53)   80.0000                   (X_U1.54)  -80.0000                       

(X_U1.55) 403.0E-09                   (X_U1.56) 403.0E-09                       

(X_U1.57)  148.8900                   (X_U1.58)    3.6155                       

(X_U1.59)  400.0000                   (X_U1.60) -400.0000                       

(X_U1.61)    2.2003                   (X_U1.62) 403.0E-09                       

(X_U1.63) 403.0E-09                   (X_U1.64) 403.0E-09                       

(X_U1.65) 403.0E-09                   (X_U1.66) 403.0E-09                       

(X_U1.67) 403.0E-09                   (X_U1.68)    4.9982                       

(X_U1.69)    4.9982                   (X_U1.70)     .5502                       

(X_U1.71) 403.0E-09                   (X_U1.72)     .1079                       

(X_U1.73) 403.0E-09                   (X_U1.74)     .1079                       

(X_U1.75)     .9952                   (X_U1.76) -120.0000                       

(X_U1.77)     .0975                   (X_U1.78)  107.8900                       

(X_U1.79)     .7519                   (X_U1.80)     .3000                       

(X_U1.81)    5.2000                   (X_U1.82)     .7519                       

(X_U1.83) 403.0E-09                   (X_U1.84)     .5000                       

(X_U1.85)    5.0000                   (X_U1.86)     .1558                       

(X_U1.87)     .1558                   (X_U2.21)     .5518                       

(X_U2.22)     .0990                   (X_U2.23)     .0987                       

(X_U2.24)     .1772                   (X_U2.25)     .1809                       

(X_U2.26)     .7733                   (X_U2.27)     .7876                       

(X_U2.28)     .0079                   (X_U2.29)     .1259                       

(X_U2.30)     .0990                   (X_U2.31) 402.6E-09                       

(X_U2.32) 402.6E-09                   (X_U2.33)  190.7800                       

(X_U2.34)  191.6600                   (X_U2.35)  199.9200                       

(X_U2.36)  199.9200                   (X_U2.37)    4.4584                       

(X_U2.38)  196.1200                   (X_U2.39)   34.2010                       

(X_U2.40)     .0044                   (X_U2.41)   68.2160                       

(X_U2.42)     .6949                   (X_U2.43)     .0127                       

(X_U2.44) 194.7E+03                   (X_U2.45) 194.7E+03                       

(X_U2.46) 1465.2000                   (X_U2.47) 233.3E+03                       

(X_U2.48) 25.92E+03                   (X_U2.49) 25.92E+03                       

(X_U2.50)     .4986                   (X_U2.51)-248.9E-06                       

(X_U2.52)     .0023                   (X_U2.53)   80.0000                       

(X_U2.54)  -80.0000                   (X_U2.55) 403.0E-09                       

(X_U2.56) 403.0E-09                   (X_U2.57)  199.9200                       

(X_U2.58)    4.4584                   (X_U2.59)  400.0000                       

(X_U2.60) -400.0000                   (X_U2.61)    2.5413                       

(X_U2.62) 403.0E-09                   (X_U2.63) 403.0E-09                       

(X_U2.64) 403.0E-09                   (X_U2.65) 403.0E-09                       

(X_U2.66) 403.0E-09                   (X_U2.67) 403.0E-09                       

(X_U2.68)    4.9958                   (X_U2.69)    4.9958                       

(X_U2.70)     .5518                   (X_U2.71) 403.0E-09                       

(X_U2.72)     .2885                   (X_U2.73) 403.0E-09                       

(X_U2.74)     .2885                   (X_U2.75)     .9952                       

(X_U2.76)     .0718                   (X_U2.77)     .4986                       

(X_U2.78)  288.4600                   (X_U2.79)     .6949                       

(X_U2.80)     .3000                   (X_U2.81)    5.2000                       

(X_U2.82)     .6948                   (X_U2.83) 403.0E-09                       

(X_U2.84)     .5000                   (X_U2.85)    5.0000                       

(X_U2.86)     .0987                   (X_U2.87)     .0987                       

(X_U3.21)     .5522                   (X_U3.22) 396.5E-06                       

(X_U3.23) 100.1E-06                   (X_U3.24)     .1772                       

(X_U3.25)     .1809                   (X_U3.26)     .7733                       

(X_U3.27)     .7876                   (X_U3.28)     .0078                       

(X_U3.29)     .1254                   (X_U3.30) 197.3E-06                       

(X_U3.31) 402.6E-09                   (X_U3.32) 402.6E-09                       

(X_U3.33)  190.8000                   (X_U3.34)  191.6700                       

(X_U3.35)  199.9200                   (X_U3.36)  199.9200                       

(X_U3.37)    4.4496                   (X_U3.38)  196.1200                       

(X_U3.39)   25.6710                   (X_U3.40)     .0033                       

(X_U3.41)   41.8000                   (X_U3.42)     .5963                       

(X_U3.43)     .1783                   (X_U3.44) 194.7E+03                       

(X_U3.45) 194.7E+03                   (X_U3.46) 1465.2000                       

(X_U3.47) 233.3E+03                   (X_U3.48) 25.93E+03                       

(X_U3.49) 25.93E+03                   (X_U3.50)     .4990                       

(X_U3.51) 2.467E-06                   (X_U3.52) 2.775E-06                       

(X_U3.53)   80.0000                   (X_U3.54)  -80.0000                       

(X_U3.55) 403.0E-09                   (X_U3.56) 403.0E-09                       

(X_U3.57)  199.9200                   (X_U3.58)    4.4496                       

(X_U3.59)  400.0000                   (X_U3.60) -400.0000                       

(X_U3.61)    2.5323                   (X_U3.62) 403.0E-09                       

(X_U3.63) 403.0E-09                   (X_U3.64) 403.0E-09                       

(X_U3.65) 403.0E-09                   (X_U3.66) 403.0E-09                       

(X_U3.67) 403.0E-09                   (X_U3.68)    4.9953                       

(X_U3.69)    4.9953                   (X_U3.70)     .5522                       

(X_U3.71) 403.0E-09                   (X_U3.72)     .2885                       

(X_U3.73) 403.0E-09                   (X_U3.74)     .2885                       

(X_U3.75)     .9952                   (X_U3.76)     .0505                       

(X_U3.77)     .4990                   (X_U3.78)  288.4800                       

(X_U3.79)     .5963                   (X_U3.80)     .3000                       

(X_U3.81)    5.2000                   (X_U3.82)     .5963                       

(X_U3.83) 403.0E-09                   (X_U3.84)     .5000                       

(X_U3.85)    5.0000                   (X_U3.86) 199.3E-06                       

(X_U3.87) 199.3E-06                   (X_U4.21)     .5519                       

(X_U4.22)     .2668                   (X_U4.23)     .2665                       

(X_U4.24)     .1772                   (X_U4.25)     .1809                       

(X_U4.26)     .7733                   (X_U4.27)     .7876                       

(X_U4.28)     .0078                   (X_U4.29)     .1256                       

(X_U4.30)     .2668                   (X_U4.31) 402.6E-09                       

(X_U4.32) 402.6E-09                   (X_U4.33)  190.7500                       

(X_U4.34)  191.6200                   (X_U4.35)  199.8700                       

(X_U4.36)  199.8700                   (X_U4.37)    4.4525                       

(X_U4.38)  196.0700                   (X_U4.39)   12.8220                       

(X_U4.40)     .0017                   (X_U4.41)   55.3620                       

(X_U4.42)     .8687                   (X_U4.43)     .3151                       

(X_U4.44) 194.6E+03                   (X_U4.45) 194.6E+03                       

(X_U4.46) 1464.8000                   (X_U4.47) 233.3E+03                       

(X_U4.48) 25.92E+03                   (X_U4.49) 25.92E+03                       

(X_U4.50)     .4985                   (X_U4.51)     .0058                       

(X_U4.52)     .0063                   (X_U4.53)   80.0000                       

(X_U4.54)  -80.0000                   (X_U4.55) 403.0E-09                       

(X_U4.56) 403.0E-09                   (X_U4.57)  199.8700                       

(X_U4.58)    4.4525                   (X_U4.59)  400.0000                       

(X_U4.60) -400.0000                   (X_U4.61)    2.5357                       

(X_U4.62) 403.0E-09                   (X_U4.63) 403.0E-09                       

(X_U4.64) 403.0E-09                   (X_U4.65) 403.0E-09                       

(X_U4.66) 403.0E-09                   (X_U4.67) 403.0E-09                       

(X_U4.68)    4.9957                   (X_U4.69)    4.9957                       

(X_U4.70)     .5519                   (X_U4.71) 403.0E-09                       

(X_U4.72)     .2884                   (X_U4.73) 403.0E-09                       

(X_U4.74)     .2884                   (X_U4.75)     .9952                       

(X_U4.76)     .0183                   (X_U4.77)     .4985                       

(X_U4.78)  288.4000                   (X_U4.79)     .8687                       

(X_U4.80)     .3000                   (X_U4.81)    5.2000                       

(X_U4.82)     .8687                   (X_U4.83) 403.0E-09                       

(X_U4.84)     .5000                   (X_U4.85)    5.0000                       

(X_U4.86)     .2726                   (X_U4.87)     .2726                       

(X_U1.MID) 403.0E-09                  (X_U2.MID) 403.0E-09                      

(X_U3.MID) 403.0E-09                  (X_U4.MID) 403.0E-09                      

(X_U1.ESDn)     .2228                 (X_U1.ESDp)     .1522                     

(X_U1.VCLP)  146.9900                 (X_U2.ESDn)     .0127                     

(X_U2.ESDp)     .0987                 (X_U2.VCLP)  198.0200                     

(X_U3.ESDn)     .1783                 (X_U3.ESDp) 100.1E-06                     

(X_U3.VCLP)  198.0200                 (X_U4.ESDn)     .3151                     

(X_U4.ESDp)     .2665                 (X_U4.VCLP)  197.9700                     

(X_U1.CLAMP)    2.2007                (X_U1.SW_OL)     .5139                    

(X_U1.VCC_B)    5.0000                (X_U1.VEE_B)     .5000                    

(X_U1.VIMON)    -.0182                (X_U2.CLAMP)    2.5419                    

(X_U2.SW_OL)     .5139                (X_U2.VCC_B)    5.0000                    

(X_U2.VEE_B)     .5000                (X_U2.VIMON)     .1216                    

(X_U3.CLAMP)    2.5329                (X_U3.SW_OL)     .5139                    

(X_U3.VCC_B)    5.0000                (X_U3.VEE_B)     .5000                    

(X_U3.VIMON)     .1460                (X_U4.CLAMP)    2.5363                    

(X_U4.SW_OL)     .5139                (X_U4.VCC_B)    5.0000                    

(X_U4.VEE_B)     .5000                (X_U4.VIMON)     .1264                    

(X_U1.VOUT_S)     .4423               (X_U1.VSENSE)    2.2003                   

(X_U1.Xe_n.3)    0.0000               (X_U1.Xe_n.4)    0.0000                   

(X_U1.Xe_n.5)    0.0000               (X_U1.Xe_n.6)    0.0000                   

(X_U1.Xe_n.7)     .8338               (X_U1.Xe_n.8)     .8338                   

(X_U2.VOUT_S)     .2634               (X_U2.VSENSE)    2.5413                   

(X_U2.Xe_n.3)    0.0000               (X_U2.Xe_n.4)    0.0000                   

(X_U2.Xe_n.5)    0.0000               (X_U2.Xe_n.6)    0.0000                   

(X_U2.Xe_n.7)     .8338               (X_U2.Xe_n.8)     .8338                   

(X_U3.VOUT_S)     .2637               (X_U3.VSENSE)    2.5323                   

(X_U3.Xe_n.3)    0.0000               (X_U3.Xe_n.4)    0.0000                   

(X_U3.Xe_n.5)    0.0000               (X_U3.Xe_n.6)    0.0000                   

(X_U3.Xe_n.7)     .8338               (X_U3.Xe_n.8)     .8338                   

(X_U4.VOUT_S)     .2635               (X_U4.VSENSE)    2.5357                   

(X_U4.Xe_n.3)    0.0000               (X_U4.Xe_n.4)    0.0000                   

(X_U4.Xe_n.5)    0.0000               (X_U4.Xe_n.6)    0.0000                   

(X_U4.Xe_n.7)     .8338               (X_U4.Xe_n.8)     .8338                   

(X_U1.VCC_CLP)    4.9982              (X_U1.VEE_CLP)     .5502                  

(X_U1.Xi_nn.3)    0.0000              (X_U1.Xi_nn.4)    0.0000                  

(X_U1.Xi_nn.5)    0.0000              (X_U1.Xi_nn.6)    0.0000                  

(X_U1.Xi_nn.7)     .8338              (X_U1.Xi_nn.8)     .8338                  

(X_U1.Xi_np.3)    0.0000              (X_U1.Xi_np.4)    0.0000                  

(X_U1.Xi_np.5)    0.0000              (X_U1.Xi_np.6)    0.0000                  

(X_U1.Xi_np.7)     .8338              (X_U1.Xi_np.8)     .8338                  

(X_U2.VCC_CLP)    4.9958              (X_U2.VEE_CLP)     .5518                  

(X_U2.Xi_nn.3)    0.0000              (X_U2.Xi_nn.4)    0.0000                  

(X_U2.Xi_nn.5)    0.0000              (X_U2.Xi_nn.6)    0.0000                  

(X_U2.Xi_nn.7)     .8338              (X_U2.Xi_nn.8)     .8338                  

(X_U2.Xi_np.3)    0.0000              (X_U2.Xi_np.4)    0.0000                  

(X_U2.Xi_np.5)    0.0000              (X_U2.Xi_np.6)    0.0000                  

(X_U2.Xi_np.7)     .8338              (X_U2.Xi_np.8)     .8338                  

(X_U3.VCC_CLP)    4.9953              (X_U3.VEE_CLP)     .5522                  

(X_U3.Xi_nn.3)    0.0000              (X_U3.Xi_nn.4)    0.0000                  

(X_U3.Xi_nn.5)    0.0000              (X_U3.Xi_nn.6)    0.0000                  

(X_U3.Xi_nn.7)     .8338              (X_U3.Xi_nn.8)     .8338                  

(X_U3.Xi_np.3)    0.0000              (X_U3.Xi_np.4)    0.0000                  

(X_U3.Xi_np.5)    0.0000              (X_U3.Xi_np.6)    0.0000                  

(X_U3.Xi_np.7)     .8338              (X_U3.Xi_np.8)     .8338                  

(X_U4.VCC_CLP)    4.9957              (X_U4.VEE_CLP)     .5519                  

(X_U4.Xi_nn.3)    0.0000              (X_U4.Xi_nn.4)    0.0000                  

(X_U4.Xi_nn.5)    0.0000              (X_U4.Xi_nn.6)    0.0000                  

(X_U4.Xi_nn.7)     .8338              (X_U4.Xi_nn.8)     .8338                  

(X_U4.Xi_np.3)    0.0000              (X_U4.Xi_np.4)    0.0000                  

(X_U4.Xi_np.5)    0.0000              (X_U4.Xi_np.6)    0.0000                  

(X_U4.Xi_np.7)     .8338              (X_U4.Xi_np.8)     .8338                  

(X_U1.CL_CLAMP)  107.8900             (X_U2.CL_CLAMP)  288.4600                 

(X_U3.CL_CLAMP)  288.4800             (X_U4.CL_CLAMP)  288.4000                 

(X_U1.CLAW_CLAMP)  107.8900           (X_U1.XVOS_VCM.1)     .1525               

(X_U2.CLAW_CLAMP)  288.4600           (X_U2.XVOS_VCM.1)     .0990               

(X_U3.CLAW_CLAMP)  288.4800           (X_U3.XVOS_VCM.1) 197.3E-06               

(X_U4.CLAW_CLAMP)  288.4000           (X_U4.XVOS_VCM.1)     .2668           


  These voltages failed to converge:

    V(N00840)                 =    50.00mV  \   152.22mV
    V(N00550)                 =   551.94mV  \   498.96mV
    V(N00586)                 =   547.21mV  \   315.05mV
    V(VOUT)                   =   542.48mV  \   498.51mV
    V(N00582)                 =  -750.03mV  \   178.29mV
    V(N00578)                 =    -2.052V  \    12.72mV
    V(N00564)                 =    -3.354V  \   498.58mV
    V(N00602)                 =    -1.677V  \   266.50mV
    V(N00800)                 =   -773.70V  \   222.77mV
    V(N00271)                 =   -1.547KV  \    97.47mV
    V(X_U1.ESDn)              =   -773.70V  \   222.77mV
    V(X_U1.MID)               =     2.750V  \   402.98nV
    V(X_U1.23)                =    50.00mV  \   152.22mV
    V(X_U1.59)                =    402.75V  \    400.00V
    V(X_U1.60)                =   -397.25V  \   -400.00V
    V(X_U1.53)                =     82.75V  \     80.00V
    V(X_U1.54)                =    -77.25V  \    -80.00V
    V(X_U1.38)                =    10.00GV  \    145.09V
    V(X_U1.VCLP)              =    10.00GV  \    146.99V
    V(X_U1.58)                =    10.00GV  \     3.616V
    V(X_U1.37)                =    10.00GV  \     3.616V
    V(X_U1.36)                =    10.00GV  \    148.89V
    V(X_U1.57)                =    10.00GV  \    148.89V
    V(X_U1.35)                =    10.00GV  \    148.89V
    V(X_U1.50)                =   -1.547KV  \    97.47mV
    V(X_U1.24)                =     2.750V  \   177.17mV
    V(X_U1.25)                =     1.906V  \   180.86mV
    V(X_U1.26)                =     2.750V  \   773.27mV
    V(X_U1.27)                =     3.110V  \   787.63mV
    V(X_U1.28)                =    10.00GV  \    7.413mV
    V(X_U1.29)                =    10.00GV  \   115.29mV
    V(X_U1.ESDp)              =    50.00mV  \   152.22mV
    V(X_U1.31)                =     2.750V  \   402.69nV
    V(X_U1.32)                =     2.750V  \   402.69nV
    V(X_U1.33)                =   512.54KV  \    141.85V
    V(X_U1.34)                =   512.54KV  \    141.48V
    V(X_U1.VSENSE)            =    10.00GV  \     2.200V
    V(X_U1.CLAMP)             =    10.00GV  \     2.201V
    V(X_U1.41)                =    77.38KV  \     52.92V
    V(X_U1.40)                =    6.024GV  \    -12.01V
    V(X_U1.44)                =    10.00GV  \    72.98KV
    V(X_U1.45)                =    10.00GV  \    72.97KV
    V(X_U1.46)                =    10.00GV  \    1.144KV
    V(X_U1.47)                =    10.00GV  \    87.33KV
    V(X_U1.48)                =    10.00GV  \     9.70KV
    V(X_U1.49)                =    10.00GV  \     9.70KV
    V(X_U1.CL_CLAMP)          =    10.00GV  \    107.89V
    V(X_U1.51)                =     2.750V  \    3.308mV
    V(X_U1.52)                =     2.686V  \    3.623mV
    V(X_U1.61)                =    10.00GV  \     2.200V
    V(X_U1.62)                =     2.750V  \   402.98nV
    V(X_U1.63)                =     2.750V  \   402.98nV
    V(X_U1.64)                =     2.750V  \   402.98nV
    V(X_U1.65)                =     2.750V  \   402.98nV
    V(X_U1.55)                =     2.750V  \   402.98nV
    V(X_U1.56)                =     2.750V  \   402.98nV
    V(X_U1.66)                =     2.750V  \   402.98nV
    V(X_U1.67)                =     2.750V  \   402.98nV
    V(X_U1.68)                =     3.308V  \     4.998V
    V(X_U1.69)                =     3.308V  \     4.998V
    V(X_U1.21)                =     1.711V  \   550.17mV
    V(X_U1.70)                =     1.711V  \   550.17mV
    V(X_U1.VCC_CLP)           =     3.308V  \     4.998V
    V(X_U1.VEE_CLP)           =     1.711V  \   550.17mV
    V(X_U1.71)                =     2.750V  \   402.98nV
    V(X_U1.72)                =    1.552KV  \   107.88mV
    V(X_U1.73)                =     2.750V  \   402.98nV
    V(X_U1.74)                =    1.552KV  \   107.88mV
    V(X_U1.SW_OL)             =     3.750V  \   513.91mV
    V(X_U1.75)                =     3.750V  \     0.995V
    V(X_U1.76)                =    -74.62V  \   -120.00V
    V(X_U1.77)                =   -1.547KV  \    97.47mV
    V(X_U1.VOUT_S)            =   -1.547KV  \   442.29mV
    V(X_U1.VIMON)             =    -74.62V  \   -18.20mV
    V(X_U1.78)                =    10.00GV  \    107.89V
    V(X_U1.CLAW_CLAMP)        =    10.00GV  \    107.89V
    V(X_U1.42)                =    47.22mV  \   751.92mV
    V(X_U1.79)                =    47.22mV  \   751.92mV
    V(X_U1.83)                =     2.750V  \   402.98nV
    V(X_U1.86)                =    47.22mV  \   155.83mV
    V(X_U1.82)                =    47.22mV  \   751.92mV
    V(X_U1.43)                =   -773.70V  \   222.77mV
    V(X_U1.87)                =    47.22mV  \   155.83mV
    V(X_U1.30)                =    47.44mV  \   152.52mV
    V(X_U2.ESDn)              =    -2.052V  \    12.72mV
    V(X_U2.MID)               =     2.750V  \   402.98nV
    V(X_U2.23)                =   -1.547KV  \    98.67mV
    V(X_U2.59)                =    402.75V  \    400.00V
    V(X_U2.60)                =   -397.25V  \   -400.00V
    V(X_U2.53)                =     82.75V  \     80.00V
    V(X_U2.54)                =    -77.25V  \    -80.00V
    V(X_U2.38)                =    -7.323V  \    196.12V
    V(X_U2.VCLP)              =    -5.423V  \    198.02V
    V(X_U2.58)                =   -3.866KV  \     4.458V
    V(X_U2.37)                =   -3.866KV  \     4.458V
    V(X_U2.36)                =    -3.523V  \    199.92V
    V(X_U2.57)                =    -3.523V  \    199.92V
    V(X_U2.35)                =    -3.523V  \    199.92V
    V(X_U2.50)                =    -3.354V  \   498.58mV
    V(X_U2.24)                =     2.750V  \   177.17mV
    V(X_U2.25)                =     1.906V  \   180.86mV
    V(X_U2.26)                =     2.750V  \   773.27mV
    V(X_U2.27)                =     3.110V  \   787.63mV
    V(X_U2.28)                =   -3.905KV  \    7.861mV
    V(X_U2.29)                =   -3.905KV  \   125.91mV
    V(X_U2.ESDp)              =   -1.547KV  \    98.67mV
    V(X_U2.31)                =     2.750V  \   402.59nV
    V(X_U2.32)                =     2.750V  \   402.59nV
    V(X_U2.33)                =    3.862KV  \    190.78V
    V(X_U2.34)                =    3.862KV  \    191.66V
    V(X_U2.39)                =   -183.55V  \     34.20V
    V(X_U2.VSENSE)            =   -3.905KV  \     2.541V
    V(X_U2.CLAMP)             =   -3.905KV  \     2.542V
    V(X_U2.41)                =  -154.98KV  \     68.22V
    V(X_U2.40)                =     2.726V  \    4.448mV
    V(X_U2.44)                =   -183.63V  \   194.66KV
    V(X_U2.45)                =   -183.65V  \   194.66KV
    V(X_U2.46)                =   -183.65V  \    1.465KV
    V(X_U2.47)                =   -183.65V  \   233.30KV
    V(X_U2.48)                =    -17.96V  \    25.92KV
    V(X_U2.49)                =   -183.65V  \    25.93KV
    V(X_U2.CL_CLAMP)          =    -5.423V  \    288.46V
    V(X_U2.51)                =     2.627V  \  -248.92uV
    V(X_U2.52)                =    -34.14V  \    2.349mV
    V(X_U2.61)                =   -3.905KV  \     2.541V
    V(X_U2.62)                =     2.750V  \   402.98nV
    V(X_U2.63)                =     2.750V  \   402.98nV
    V(X_U2.64)                =     2.750V  \   402.98nV
    V(X_U2.65)                =     2.750V  \   402.98nV
    V(X_U2.55)                =     2.750V  \   402.98nV
    V(X_U2.56)                =     2.750V  \   402.98nV
    V(X_U2.66)                =     2.750V  \   402.98nV
    V(X_U2.67)                =     2.750V  \   402.98nV
    V(X_U2.68)                =     5.005V  \     4.996V
    V(X_U2.69)                =     5.005V  \     4.996V
    V(X_U2.21)                =   545.53mV  \   551.82mV
    V(X_U2.70)                =   545.53mV  \   551.82mV
    V(X_U2.VCC_CLP)           =     5.005V  \     4.996V
    V(X_U2.VEE_CLP)           =   545.53mV  \   551.82mV
    V(X_U2.71)                =     2.750V  \   402.98nV
    V(X_U2.72)                =     6.650V  \   288.45mV
    V(X_U2.73)                =     2.750V  \   402.98nV
    V(X_U2.74)                =     6.650V  \   288.45mV
    V(X_U2.SW_OL)             =     3.750V  \   513.85mV
    V(X_U2.75)                =     3.750V  \     0.995V
    V(X_U2.76)                =     2.452V  \    71.79mV
    V(X_U2.77)                =    -3.354V  \   498.58mV
    V(X_U2.VOUT_S)            =    -3.354V  \   263.37mV
    V(X_U2.VIMON)             =     2.452V  \   121.62mV
    V(X_U2.78)                =    -5.423V  \    288.46V
    V(X_U2.CLAW_CLAMP)        =    -5.423V  \    288.46V
    V(X_U2.42)                =   -1.552KV  \   694.88mV
    V(X_U2.79)                =   -1.552KV  \   694.88mV
    V(X_U2.83)                =     2.750V  \   402.98nV
    V(X_U2.86)                =   -1.552KV  \    98.72mV
    V(X_U2.82)                =   -1.552KV  \   694.81mV
    V(X_U2.43)                =    -2.052V  \    12.72mV
    V(X_U2.87)                =   -1.552KV  \    98.72mV
    V(X_U2.30)                =   -1.552KV  \    98.97mV
    V(X_U3.ESDn)              =  -750.03mV  \   178.29mV
    V(X_U3.MID)               =     2.750V  \   402.98nV
    V(X_U3.23)                =   124.27fV  \   100.07uV
    V(X_U3.59)                =    402.75V  \    400.00V
    V(X_U3.60)                =   -397.25V  \   -400.00V
    V(X_U3.53)                =     82.75V  \     80.00V
    V(X_U3.54)                =    -77.25V  \    -80.00V
    V(X_U3.38)                =    -1.036V  \    196.12V
    V(X_U3.VCLP)              =   863.89mV  \    198.02V
    V(X_U3.58)                =   824.20mV  \     4.450V
    V(X_U3.37)                =   824.20mV  \     4.450V
    V(X_U3.36)                =     2.764V  \    199.92V
    V(X_U3.57)                =     2.764V  \    199.92V
    V(X_U3.35)                =     2.764V  \    199.92V
    V(X_U3.50)                =   551.94mV  \   498.96mV
    V(X_U3.24)                =     2.750V  \   177.17mV
    V(X_U3.25)                =     1.906V  \   180.86mV
    V(X_U3.26)                =     2.750V  \   773.27mV
    V(X_U3.27)                =     3.110V  \   787.63mV
    V(X_U3.28)                =   842.81mV  \    7.827mV
    V(X_U3.29)                =   842.80mV  \   125.42mV
    V(X_U3.ESDp)              =   124.27fV  \   100.07uV
    V(X_U3.31)                =     2.750V  \   402.59nV
    V(X_U3.32)                =     2.750V  \   402.59nV
    V(X_U3.33)                =   889.69mV  \    190.80V
    V(X_U3.34)                =   889.69mV  \    191.67V
    V(X_U3.39)                =     30.84V  \     25.67V
    V(X_U3.VSENSE)            =   842.80mV  \     2.532V
    V(X_U3.CLAMP)             =   842.80mV  \     2.533V
    V(X_U3.41)                =     77.46V  \     41.80V
    V(X_U3.40)                =     2.754V  \    3.339mV
    V(X_U3.44)                =     30.85V  \   194.67KV
    V(X_U3.45)                =     30.85V  \   194.67KV
    V(X_U3.46)                =     30.85V  \    1.465KV
    V(X_U3.47)                =     30.85V  \   233.31KV
    V(X_U3.48)                =     5.873V  \    25.93KV
    V(X_U3.49)                =     30.85V  \    25.93KV
    V(X_U3.CL_CLAMP)          =   863.89mV  \    288.48V
    V(X_U3.51)                =     2.750V  \    2.467uV
    V(X_U3.52)                =     2.685V  \    2.775uV
    V(X_U3.61)                =   842.80mV  \     2.532V
    V(X_U3.62)                =     2.750V  \   402.98nV
    V(X_U3.63)                =     2.750V  \   402.98nV
    V(X_U3.64)                =     2.750V  \   402.98nV
    V(X_U3.65)                =     2.750V  \   402.98nV
    V(X_U3.55)                =     2.750V  \   402.98nV
    V(X_U3.56)                =     2.750V  \   402.98nV
    V(X_U3.66)                =     2.750V  \   402.98nV
    V(X_U3.67)                =     2.750V  \   402.98nV
    V(X_U3.71)                =     2.750V  \   402.98nV
    V(X_U3.72)                =     2.750V  \   288.47mV
    V(X_U3.73)                =     2.750V  \   402.98nV
    V(X_U3.74)                =     2.750V  \   288.47mV
    V(X_U3.SW_OL)             =     3.750V  \   513.85mV
    V(X_U3.75)                =     3.750V  \     0.995V
    V(X_U3.76)                =     2.881V  \    50.46mV
    V(X_U3.77)                =   551.94mV  \   498.96mV
    V(X_U3.VOUT_S)            =   551.94mV  \   263.72mV
    V(X_U3.VIMON)             =     2.881V  \   145.98mV
    V(X_U3.78)                =   863.89mV  \    288.48V
    V(X_U3.CLAW_CLAMP)        =   863.89mV  \    288.48V
    V(X_U3.42)                =   -2.920mV  \   596.29mV
    V(X_U3.79)                =   -2.920mV  \   596.29mV
    V(X_U3.83)                =     2.750V  \   402.98nV
    V(X_U3.86)                =   -2.921mV  \   199.33uV
    V(X_U3.82)                =   -2.920mV  \   596.29mV
    V(X_U3.43)                =  -750.03mV  \   178.29mV
    V(X_U3.87)                =   -2.921mV  \   199.33uV
    V(X_U3.30)                =   -2.703mV  \   197.26uV
    V(X_U4.ESDn)              =   547.21mV  \   315.05mV
    V(X_U4.MID)               =     2.750V  \   402.98nV
    V(X_U4.23)                =    -1.677V  \   266.50mV
    V(X_U4.59)                =    402.75V  \    400.00V
    V(X_U4.60)                =   -397.25V  \   -400.00V
    V(X_U4.53)                =     82.75V  \     80.00V
    V(X_U4.54)                =    -77.25V  \    -80.00V
    V(X_U4.38)                =    -1.629V  \    196.07V
    V(X_U4.VCLP)              =   270.71mV  \    197.97V
    V(X_U4.58)                =    -7.187V  \     4.453V
    V(X_U4.37)                =    -7.187V  \     4.453V
    V(X_U4.36)                =     2.171V  \    199.87V
    V(X_U4.57)                =     2.171V  \    199.87V
    V(X_U4.35)                =     2.171V  \    199.87V
    V(X_U4.50)                =   542.48mV  \   498.51mV
    V(X_U4.24)                =     2.750V  \   177.17mV
    V(X_U4.25)                =     1.906V  \   180.86mV
    V(X_U4.26)                =     2.750V  \   773.27mV
    V(X_U4.27)                =     3.110V  \   787.63mV
    V(X_U4.28)                =    -7.242V  \    7.838mV
    V(X_U4.29)                =    -7.242V  \   125.59mV
    V(X_U4.ESDp)              =    -1.677V  \   266.50mV
    V(X_U4.31)                =     2.750V  \   402.59nV
    V(X_U4.32)                =     2.750V  \   402.59nV
    V(X_U4.33)                =     8.308V  \    190.75V
    V(X_U4.34)                =     8.308V  \    191.62V
    V(X_U4.39)                =    -21.72V  \     12.82V
    V(X_U4.VSENSE)            =    -7.242V  \     2.536V
    V(X_U4.CLAMP)             =    -7.242V  \     2.536V
    V(X_U4.41)                =   -220.45V  \     55.36V
    V(X_U4.40)                =     2.747V  \    1.668mV
    V(X_U4.44)                =    -21.73V  \   194.62KV
    V(X_U4.45)                =    -21.74V  \   194.62KV
    V(X_U4.46)                =    -21.74V  \    1.465KV
    V(X_U4.47)                =    -21.74V  \   233.25KV
    V(X_U4.48)                =    29.45mV  \    25.92KV
    V(X_U4.49)                =    -21.74V  \    25.92KV
    V(X_U4.CL_CLAMP)          =   270.71mV  \    288.40V
    V(X_U4.51)                =     2.750V  \    5.779mV
    V(X_U4.52)                =     2.645V  \    6.343mV
    V(X_U4.61)                =    -7.242V  \     2.536V
    V(X_U4.62)                =     2.750V  \   402.98nV
    V(X_U4.63)                =     2.750V  \   402.98nV
    V(X_U4.64)                =     2.750V  \   402.98nV
    V(X_U4.65)                =     2.750V  \   402.98nV
    V(X_U4.55)                =     2.750V  \   402.98nV
    V(X_U4.56)                =     2.750V  \   402.98nV
    V(X_U4.66)                =     2.750V  \   402.98nV
    V(X_U4.67)                =     2.750V  \   402.98nV
    V(X_U4.21)                =   550.00mV  \   551.90mV
    V(X_U4.70)                =   550.00mV  \   551.90mV
    V(X_U4.VEE_CLP)           =   550.00mV  \   551.90mV
    V(X_U4.71)                =     2.750V  \   402.98nV
    V(X_U4.72)                =     2.758V  \   288.39mV
    V(X_U4.73)                =     2.750V  \   402.98nV
    V(X_U4.74)                =     2.758V  \   288.39mV
    V(X_U4.SW_OL)             =     3.750V  \   513.85mV
    V(X_U4.75)                =     3.750V  \     0.995V
    V(X_U4.76)                =     2.750V  \    18.35mV
    V(X_U4.77)                =   542.48mV  \   498.51mV
    V(X_U4.VOUT_S)            =   542.48mV  \   263.51mV
    V(X_U4.VIMON)             =     2.750V  \   126.44mV
    V(X_U4.78)                =   270.71mV  \    288.40V
    V(X_U4.CLAW_CLAMP)        =   270.71mV  \    288.40V
    V(X_U4.42)                =    -1.685V  \   868.67mV
    V(X_U4.79)                =    -1.685V  \   868.67mV
    V(X_U4.83)                =     2.750V  \   402.98nV
    V(X_U4.86)                =    -1.685V  \   272.58mV
    V(X_U4.82)                =    -1.685V  \   868.67mV
    V(X_U4.43)                =   547.21mV  \   315.05mV
    V(X_U4.87)                =    -1.685V  \   272.58mV
    V(X_U4.30)                =    -1.684V  \   266.80mV
    V(X_U1.22)                =    50.30mV  \   152.52mV
    V(X_U1.XVOS_VCM.1)        =    50.20mV  \   152.52mV
    V(X_U2.22)                =   -1.547KV  \    98.97mV
    V(X_U2.XVOS_VCM.1)        =   -1.551KV  \    98.97mV
    V(X_U3.22)                =   296.40uV  \   396.47uV
    V(X_U3.XVOS_VCM.1)        =    96.99uV  \   197.26uV
    V(X_U4.22)                =    -1.677V  \   266.80mV
    V(X_U4.XVOS_VCM.1)        =    -1.680V  \   266.80mV

  These supply currents failed to converge:

    I(X_U1.E5)                =    1.550nA  \    3.448mA
    I(X_U1.E4)                =         0A  \   391.03mA
    I(X_U1.E1)                =    62.50mA  \   119.93mA
    I(X_U2.E5)                =    6.104pA  \   -2.352mA
    I(X_U2.E4)                =         0A  \  -904.43mA
    I(X_U2.E1)                =   -4.660nA  \  -119.66mA
    I(X_U3.E5)                =    2.198pA  \   -2.352mA
    I(X_U3.E4)                =         0A  \  -904.53mA
    I(X_U3.E1)                =  -923.71fA  \    99.00uA
    I(X_U4.E5)                =    2.208pA  \   -2.350mA
    I(X_U4.E4)                =         0A  \  -904.25mA
    I(X_U4.E1)                =   -5.885pA  \   141.05uA
    I(X_U1.Xe_n.E3)           =    4.606pA  \    10.31pA
    I(X_U2.Xe_n.E3)           =   -3.143nA  \    10.20pA
    I(X_U3.Xe_n.E3)           =    4.500pA  \    10.00pA
    I(X_U4.Xe_n.E3)           =    1.336pA  \    10.51pA
    I(V_V1)                   =  -312.31uA  \  -874.03uA
    I(V_V2)                   =    5.000uA  \    15.22uA
    I(V_V3)                   =   -77.37mA  \    22.28uA
    I(V_V8)                   =  -167.70uA  \    10.03mA
    I(V_V10)                  =   -77.85mA  \     9.71mA
    I(V_V11)                  =   -5.000uA  \    5.222uA
    I(X_U1.V11)               =  -512.54KA  \   -141.48A
    I(X_U1.V12)               =    61.04uA  \  -293.37pA
    I(X_U1.V4)                =   -77.37mA  \  -120.00mA
    I(X_U1.VCM_MIN)           =    2.450pA  \  -300.05fA
    I(X_U1.VCM_MAX)           =   -1.729pA  \   -4.258pA
    I(X_U2.V11)               =   -3.859KA  \   -191.66A
    I(X_U2.V12)               =   -7.803nA  \  -394.74pA
    I(X_U2.V4)                =  -297.90uA  \    71.79uA
    I(X_U2.VCM_MIN)           =    2.450pA  \  -299.92fA
    I(X_U2.VCM_MAX)           =   -2.450pA  \   -5.201pA
    I(X_U3.V11)               =     1.860A  \   -191.67A
    I(X_U3.V12)               =   -3.842pA  \  -394.75pA
    I(X_U3.V4)                =   130.67uA  \    50.46uA
    I(X_U3.VCM_MIN)           =    2.450pA  \  -300.03fA
    I(X_U3.VCM_MAX)           =   -2.452pA  \   -5.200pA
    I(X_U4.V11)               =    -5.558A  \   -191.62A
    I(X_U4.V12)               =   -18.83pA  \  -394.67pA
    I(X_U4.V4)                =  -472.97nA  \    18.35uA
    I(X_U4.VCM_MIN)           =    2.450pA  \  -300.04fA
    I(X_U4.VCM_MAX)           =   -2.452pA  \   -5.200pA
    I(X_U1.H2)                =         0A  \    3.680mA
    I(X_U1.H1)                =    77.37pA  \     1.200A
    I(X_U2.H2)                =         0A  \   -8.746mA
    I(X_U2.H1)                =   297.89fA  \   498.25uA
    I(X_U3.H2)                =         0A  \   -8.748mA
    I(X_U3.H1)                =  -130.67fA  \   955.19uA
    I(X_U4.H2)                =         0A  \   -8.745mA
    I(X_U4.H1)                = 468.85e-18A  \    1.081mA

  These devices failed to converge:
    X_U1.XVOS_VCM.E1 X_U3.XVOS_VCM.E1 X_U4.XVOS_VCM.E1 X_U1.XVCCS_LIM_ZO.G1 
    X_U1.XVCCS_LIM_2.G1 X_U1.XGR_AMP.GVO+ X_U1.XCLAW_SRC.G1 X_U1.XVCM_CLAMP.G1 
    X_U2.XCLAWn.G1 X_U2.XVCCS_LIM_2.G1 X_U2.XIQp.G1 X_U2.XIQn.G1 
    X_U2.XGR_AMP.GVO- X_U2.XCLAWp.G1 X_U2.XCLAW_SRC.G1 X_U2.XVCM_CLAMP.G1 
    X_U3.XVCCS_LIM_2.G1 X_U3.XOL_SENSE.GSW+ X_U3.XVCM_CLAMP.G1 
    X_U4.XVCCS_LIM_2.G1 X_U4.XIQp.G1 X_U4.XIQn.G1 X_U4.XCLAWp.G1 
    X_U4.XVCM_CLAMP.G1 

**** Interrupt ****
