
**** 11/17/25 15:00:33 **** PSpice 23.1.0 (30 January 2024) *** ID# 0 ********

 ** Profile: "SCHEMATIC1-bias_point"  [ c:\users\mshar\documents\capstone\simulation\software-defined instrumentation amplifier\softw


 ****     CIRCUIT DESCRIPTION


******************************************************************************




** Creating circuit file "bias_point.cir" 
** WARNING: THIS AUTOMATICALLY GENERATED FILE MAY BE OVERWRITTEN BY SUBSEQUENT SIMULATIONS

*Libraries: 
* Profile Libraries :
* Local Libraries :
* From [PSPICE NETLIST] section of C:\cds_spb_home\cdssetup\OrCAD_PSpiceTIPSpice_Install\23.1.0\PSpice.ini file:
.lib "nom_pspti.lib" 
.lib "nom.lib" 

*Analysis directives: 
.OPTIONS ADVCONV
.OPTIONS FILEMODELSEARCH
.PROBE64 V(alias(*)) I(alias(*)) W(alias(*)) D(alias(*)) NOISE(alias(*)) 
.INC "..\SCHEMATIC1.net" 



**** INCLUDING SCHEMATIC1.net ****
* source SOFTWARE_DEFINED_INSTRUMENTATION_AMPLIFIER
R_R1         VSEN N00840  1Meg TC=0,0 
R_R2         N01742 N00840  1Meg TC=0,0 
R_R3         N00550 N00586  10k TC=0,0 
R_R4         N00586 VOUT  10k TC=0,0 
R_R5         N00582 N00550  10k TC=0,0 
R_RG         N00578 N00582  10k TC=0,0 
R_R7         N00564 N00578  10k TC=0,0 
R_R8         N00602 N00564  10k TC=0,0 
R_R9         VREF2 N00602  10k TC=0,0 
R_R11         N00870 N00271  1Meg TC=0,0 
V_V1         VDD 0 5
V_V2         VOFF+ 0 0
V_V3         VOFF- 0 5
V_V7         VREF1 0 0
V_V8         VREF2 0 0
V_V10         0 VSS 5
V_V11         VSEN 0 0
X_U1         N00840 N00870 VDD VSS N00271 TLV9102
X_U2         N00271 N00578 VDD VSS N00564 TLV9102
X_U3         VREF2 N00582 VDD VSS N00550 TLV9102
X_U4         N00602 N00586 VDD VSS VOUT TLV9102
R_R12         N01742 VDD  0 TC=0,0 
--------------------------$
WARNING -- Zero resistance is not allowed and is internally replaced with 1.000e-12 Ohms.
R_R13         0 N01742  50k TC=0,0 
R_R14         N19009 VDD  29k TC=0,0 
R_R15         0 N19009  21k TC=0,0 

**** RESUMING bias_point.cir ****
.END

**** 11/17/25 15:00:33 **** PSpice 23.1.0 (30 January 2024) *** ID# 0 ********

 ** Profile: "SCHEMATIC1-bias_point"  [ c:\users\mshar\documents\capstone\simulation\software-defined instrumentation amplifier\softw


 ****     Diode MODEL PARAMETERS


******************************************************************************




               X_U1.Xe_n.DVN   X_U1.Xi_nn.DVNF X_U1.Xi_np.DVNF X_U2.Xe_n.DVN   
          IS  100.000000E-18  100.000000E-18  100.000000E-18  100.000000E-18 
          KF   31.622780E-12  316.227800E-15  316.227800E-15   31.622780E-12 


               X_U2.Xi_nn.DVNF X_U2.Xi_np.DVNF X_U3.Xe_n.DVN   X_U3.Xi_nn.DVNF 
          IS  100.000000E-18  100.000000E-18  100.000000E-18  100.000000E-18 
          KF  316.227800E-15  316.227800E-15   31.622780E-12  316.227800E-15 


               X_U3.Xi_np.DVNF X_U4.Xe_n.DVN   X_U4.Xi_nn.DVNF X_U4.Xi_np.DVNF 
          IS  100.000000E-18  100.000000E-18  100.000000E-18  100.000000E-18 
          KF  316.227800E-15   31.622780E-12  316.227800E-15  316.227800E-15 


**** 11/17/25 15:00:33 **** PSpice 23.1.0 (30 January 2024) *** ID# 0 ********

 ** Profile: "SCHEMATIC1-bias_point"  [ c:\users\mshar\documents\capstone\simulation\software-defined instrumentation amplifier\softw


 ****     Resistor MODEL PARAMETERS


******************************************************************************




               X_U1.R_NOISELESS 
  T_Measured   27            
   T_Current -273.15         
           R    1            


               X_U2.R_NOISELESS 
  T_Measured   27            
   T_Current -273.15         
           R    1            


               X_U3.R_NOISELESS 
  T_Measured   27            
   T_Current -273.15         
           R    1            


               X_U4.R_NOISELESS 
  T_Measured   27            
   T_Current -273.15         
           R    1            


**** 11/17/25 15:00:33 **** PSpice 23.1.0 (30 January 2024) *** ID# 0 ********

 ** Profile: "SCHEMATIC1-bias_point"  [ c:\users\mshar\documents\capstone\simulation\software-defined instrumentation amplifier\softw


 ****     Voltage Controlled Switch MODEL PARAMETERS


******************************************************************************




               X_U1.BB_SW      X_U1.ESD_SW     X_U1.OL_SW      X_U1.OR_SW      
         RON   50              50               1.000000E-03     .01         
        ROFF    1.000000E+12    1.000000E+12    1.000000E+09    1.000000E+09 
         VON     .7              .25             .9             1.000000E-03 
        VOFF    0               0                .8             0            


               X_U1.S_VSWITCH_1 
         RON   50            
        ROFF    1.000000E+12 
         VON     .5          
        VOFF     .45         


               X_U1.S_VSWITCH_2 
         RON   50            
        ROFF    1.000000E+12 
         VON     .5          
        VOFF     .45         


               X_U1.S_VSWITCH_3 
         RON   50            
        ROFF    1.000000E+12 
         VON     .5          
        VOFF     .45         


               X_U1.S_VSWITCH_4 
         RON   50            
        ROFF    1.000000E+12 
         VON     .5          
        VOFF     .45         


               X_U1.S_VSWITCH_5 
         RON     .01         
        ROFF    1.000000E+12 
         VON     .01         
        VOFF    0            


               X_U1.S_VSWITCH_6 
         RON     .01         
        ROFF    1.000000E+12 
         VON     .01         
        VOFF    0            


               X_U1.S_VSWITCH_7 
         RON    1.000000E-03 
        ROFF    1.000000E+12 
         VON     .5          
        VOFF     .1          


               X_U1.S_VSWITCH_8 
         RON   50            
        ROFF    1.000000E+12 
         VON     .5          
        VOFF     .45         


               X_U1.S_VSWITCH_9                X_U2.BB_SW      X_U2.ESD_SW     
         RON   50                              50              50            
        ROFF    1.000000E+12                    1.000000E+12    1.000000E+12 
         VON     .5                              .7              .25         
        VOFF     .45                            0               0            


               X_U2.OL_SW      X_U2.OR_SW      
         RON    1.000000E-03     .01         
        ROFF    1.000000E+09    1.000000E+09 
         VON     .9             1.000000E-03 
        VOFF     .8             0            


               X_U2.S_VSWITCH_1 
         RON   50            
        ROFF    1.000000E+12 
         VON     .5          
        VOFF     .45         


               X_U2.S_VSWITCH_2 
         RON   50            
        ROFF    1.000000E+12 
         VON     .5          
        VOFF     .45         


               X_U2.S_VSWITCH_3 
         RON   50            
        ROFF    1.000000E+12 
         VON     .5          
        VOFF     .45         


               X_U2.S_VSWITCH_4 
         RON   50            
        ROFF    1.000000E+12 
         VON     .5          
        VOFF     .45         


               X_U2.S_VSWITCH_5 
         RON     .01         
        ROFF    1.000000E+12 
         VON     .01         
        VOFF    0            


               X_U2.S_VSWITCH_6 
         RON     .01         
        ROFF    1.000000E+12 
         VON     .01         
        VOFF    0            


               X_U2.S_VSWITCH_7 
         RON    1.000000E-03 
        ROFF    1.000000E+12 
         VON     .5          
        VOFF     .1          


               X_U2.S_VSWITCH_8 
         RON   50            
        ROFF    1.000000E+12 
         VON     .5          
        VOFF     .45         


               X_U2.S_VSWITCH_9                X_U3.BB_SW      X_U3.ESD_SW     
         RON   50                              50              50            
        ROFF    1.000000E+12                    1.000000E+12    1.000000E+12 
         VON     .5                              .7              .25         
        VOFF     .45                            0               0            


               X_U3.OL_SW      X_U3.OR_SW      
         RON    1.000000E-03     .01         
        ROFF    1.000000E+09    1.000000E+09 
         VON     .9             1.000000E-03 
        VOFF     .8             0            


               X_U3.S_VSWITCH_1 
         RON   50            
        ROFF    1.000000E+12 
         VON     .5          
        VOFF     .45         


               X_U3.S_VSWITCH_2 
         RON   50            
        ROFF    1.000000E+12 
         VON     .5          
        VOFF     .45         


               X_U3.S_VSWITCH_3 
         RON   50            
        ROFF    1.000000E+12 
         VON     .5          
        VOFF     .45         


               X_U3.S_VSWITCH_4 
         RON   50            
        ROFF    1.000000E+12 
         VON     .5          
        VOFF     .45         


               X_U3.S_VSWITCH_5 
         RON     .01         
        ROFF    1.000000E+12 
         VON     .01         
        VOFF    0            


               X_U3.S_VSWITCH_6 
         RON     .01         
        ROFF    1.000000E+12 
         VON     .01         
        VOFF    0            


               X_U3.S_VSWITCH_7 
         RON    1.000000E-03 
        ROFF    1.000000E+12 
         VON     .5          
        VOFF     .1          


               X_U3.S_VSWITCH_8 
         RON   50            
        ROFF    1.000000E+12 
         VON     .5          
        VOFF     .45         


               X_U3.S_VSWITCH_9                X_U4.BB_SW      X_U4.ESD_SW     
         RON   50                              50              50            
        ROFF    1.000000E+12                    1.000000E+12    1.000000E+12 
         VON     .5                              .7              .25         
        VOFF     .45                            0               0            


               X_U4.OL_SW      X_U4.OR_SW      
         RON    1.000000E-03     .01         
        ROFF    1.000000E+09    1.000000E+09 
         VON     .9             1.000000E-03 
        VOFF     .8             0            


               X_U4.S_VSWITCH_1 
         RON   50            
        ROFF    1.000000E+12 
         VON     .5          
        VOFF     .45         


               X_U4.S_VSWITCH_2 
         RON   50            
        ROFF    1.000000E+12 
         VON     .5          
        VOFF     .45         


               X_U4.S_VSWITCH_3 
         RON   50            
        ROFF    1.000000E+12 
         VON     .5          
        VOFF     .45         


               X_U4.S_VSWITCH_4 
         RON   50            
        ROFF    1.000000E+12 
         VON     .5          
        VOFF     .45         


               X_U4.S_VSWITCH_5 
         RON     .01         
        ROFF    1.000000E+12 
         VON     .01         
        VOFF    0            


               X_U4.S_VSWITCH_6 
         RON     .01         
        ROFF    1.000000E+12 
         VON     .01         
        VOFF    0            


               X_U4.S_VSWITCH_7 
         RON    1.000000E-03 
        ROFF    1.000000E+12 
         VON     .5          
        VOFF     .1          


               X_U4.S_VSWITCH_8 
         RON   50            
        ROFF    1.000000E+12 
         VON     .5          
        VOFF     .45         


               X_U4.S_VSWITCH_9 
         RON   50            
        ROFF    1.000000E+12 
         VON     .5          
        VOFF     .45         


Starting pseudo-transient algorithm.

INFO(ORPSIM-16594): To improve Pseudotransient Convergence and Performance, set following options to relax stabilization criteria for capacitor currents and inductor voltages: PTRANABSTOL=1e-5, PTRANVNTOL=1e-4

ERROR -- Convergence problem in bias point calculation


  Last node voltages tried were:

 NODE   VOLTAGE     NODE   VOLTAGE     NODE   VOLTAGE     NODE   VOLTAGE


(  VDD)    5.0000  (  VSS)   -5.0000  ( VOUT)    4.9905  ( VSEN)    0.0000      

(VOFF+)    0.0000  (VOFF-)    5.0000  (VREF1)    0.0000  (VREF2)    0.0000      

(N00271)    5.0001 (N00550)   -2.4437 (N00564)    4.9893 (N00578)    2.5297     

(N00582)     .0557 (N00586)    1.2606 (N00602)    2.5124 (N00840)    3.0251     

(N00870)    2.7725 (N01742)    5.0000 (N19009)    2.1000 (X_U1.21)   -4.9499    

(X_U1.22)    3.0254                   (X_U1.23)    3.0251                       

(X_U1.24)-500.6E-09                   (X_U1.25)   -1.8750                       

(X_U1.26) 500.0E-09                   (X_U1.27)     .8000                       

(X_U1.28)    6.7286                   (X_U1.29)    6.7904                       

(X_U1.30)    3.0254                   (X_U1.31)-162.8E-15                       

(X_U1.32)-162.5E-15                   (X_U1.33)-7.438E-12                       

(X_U1.34)-7.438E-12                   (X_U1.35)    6.9756                       

(X_U1.36)    6.9756                   (X_U1.37)    3.1756                       

(X_U1.38)    3.1756                   (X_U1.39)   56.3260                       

(X_U1.40)     .0073                   (X_U1.41)   25.3660                       

(X_U1.42)    3.0262                   (X_U1.43)    2.7725                       

(X_U1.44)   56.3870                   (X_U1.45)   56.3920                       

(X_U1.46)   33.0510                   (X_U1.47)   61.0610                       

(X_U1.48)    6.7848                   (X_U1.49)    6.7921                       

(X_U1.50)    5.0001                   (X_U1.51) 739.7E-06                       

(X_U1.52)     .0720                   (X_U1.53)   80.0000                       

(X_U1.54)  -80.0000                   (X_U1.55)-505.1E-18                       

(X_U1.56)-505.1E-18                   (X_U1.57)    6.9756                       

(X_U1.58)    3.1756                   (X_U1.59)  400.0000                       

(X_U1.60) -400.0000                   (X_U1.61)    6.8945                       

(X_U1.62)-505.1E-18                   (X_U1.63)-505.1E-18                       

(X_U1.64)-505.1E-18                   (X_U1.65)-505.1E-18                       

(X_U1.66)-505.1E-18                   (X_U1.67)-505.1E-18                       

(X_U1.68)    4.9984                   (X_U1.69)    4.9984                       

(X_U1.70)   -4.9499                   (X_U1.71)     .0017                       

(X_U1.72)-505.1E-18                   (X_U1.73)     .0017                       

(X_U1.74)-505.1E-18                   (X_U1.75)-505.1E-18                       

(X_U1.76)     .0033                   (X_U1.77)    5.0001                       

(X_U1.78)    5.0755                   (X_U1.79)    3.0262                       

(X_U1.80)   -5.2000                   (X_U1.81)    5.2000                       

(X_U1.82)    3.0262                   (X_U1.83)-505.1E-18                       

(X_U1.84)   -5.0000                   (X_U1.85)    5.0000                       

(X_U1.86)    3.0262                   (X_U1.87)    3.0262                       

(X_U2.21)   -4.9426                   (X_U2.22)    5.0004                       

(X_U2.23)    5.0001                   (X_U2.24)-500.6E-09                       

(X_U2.25)   -1.8750                   (X_U2.26) 500.0E-09                       

(X_U2.27)     .8000                   (X_U2.28)    6.8770                       

(X_U2.29)    7.0211                   (X_U2.30)    5.0008                       

(X_U2.31)     .0397                   (X_U2.32)     .0401                       

(X_U2.33)-7.696E-12                   (X_U2.34)-7.697E-12                       

(X_U2.35)    7.2675                   (X_U2.36)    7.2274                       

(X_U2.37)    3.4274                   (X_U2.38)    3.4274                       

(X_U2.39)  252.3400                   (X_U2.40)     .0328                       

(X_U2.41)  247.1500                   (X_U2.42)    5.0012                       

(X_U2.43)    2.5297                   (X_U2.44)  252.0100                       

(X_U2.45)  252.0300                   (X_U2.46)  143.1500                       

(X_U2.47)  273.8100                   (X_U2.48)   30.4240                       

(X_U2.49)   30.4490                   (X_U2.50)    4.9893                       

(X_U2.51) 397.2E-06                   (X_U2.52)     .1190                       

(X_U2.53)   80.0000                   (X_U2.54)  -80.0000                       

(X_U2.55)-471.7E-18                   (X_U2.56)-471.7E-18                       

(X_U2.57)    7.2675                   (X_U2.58)    3.4274                       

(X_U2.59)  400.0000                   (X_U2.60) -400.0000                       

(X_U2.61)    7.2756                   (X_U2.62)-471.7E-18                       

(X_U2.63)-471.7E-18                   (X_U2.64)-471.7E-18                       

(X_U2.65)-471.7E-18                   (X_U2.66)-471.7E-18                       

(X_U2.67)-471.7E-18                   (X_U2.68)    4.9877                       

(X_U2.69)    4.9877                   (X_U2.70)   -4.9426                       

(X_U2.71)     .0016                   (X_U2.72)-471.7E-18                       

(X_U2.73)     .0016                   (X_U2.74)-471.7E-18                       

(X_U2.75)     .9944                   (X_U2.76)     .4937                       

(X_U2.77)    4.9893                   (X_U2.78)    5.3275                       

(X_U2.79)    5.0012                   (X_U2.80)   -5.2000                       

(X_U2.81)    5.2000                   (X_U2.82)    5.0012                       

(X_U2.83)-471.7E-18                   (X_U2.84)   -5.0000                       

(X_U2.85)    5.0000                   (X_U2.86)    5.0012                       

(X_U2.87)    5.0012                   (X_U3.21)   -4.9407                       

(X_U3.22) 296.4E-06                   (X_U3.23)-19.07E-09                       

(X_U3.24)-500.6E-09                   (X_U3.25)   -1.8750                       

(X_U3.26) 500.0E-09                   (X_U3.27)     .8000                       

(X_U3.28)   -2.8371                   (X_U3.29)   -2.8638                       

(X_U3.30) 296.4E-06                   (X_U3.31)-3.947E-12                       

(X_U3.32)-3.947E-12                   (X_U3.33)-3.654E-12                       

(X_U3.34)-3.655E-12                   (X_U3.35)    -.9276                       

(X_U3.36)    -.9276                   (X_U3.37)   -4.7276                       

(X_U3.38)   -4.7276                   (X_U3.39) -275.0300                       

(X_U3.40)    -.0358                   (X_U3.41)   -5.5432                       

(X_U3.42) 297.4E-06                   (X_U3.43)     .0557                       

(X_U3.44) -274.1200                   (X_U3.45) -274.1500                       

(X_U3.46) -160.3100                   (X_U3.47) -296.9200                       

(X_U3.48)  -32.9920                   (X_U3.49)  -35.4220                       

(X_U3.50)   -2.4437                   (X_U3.51) 132.3E-12                       

(X_U3.52)-453.8E-12                   (X_U3.53)   80.0000                       

(X_U3.54)  -80.0000                   (X_U3.55)-463.0E-18                       

(X_U3.56)-463.0E-18                   (X_U3.57)    -.9276                       

(X_U3.58)   -4.7276                   (X_U3.59)  400.0000                       

(X_U3.60) -400.0000                   (X_U3.61)   -2.9008                       

(X_U3.62)-463.0E-18                   (X_U3.63)-463.0E-18                       

(X_U3.64)-463.0E-18                   (X_U3.65)-463.0E-18                       

(X_U3.66)-463.0E-18                   (X_U3.67)-463.0E-18                       

(X_U3.68)    4.9850                   (X_U3.69)    4.9850                       

(X_U3.70)   -4.9407                   (X_U3.71)-463.0E-18                       

(X_U3.72)-463.0E-18                   (X_U3.73)-463.0E-18                       

(X_U3.74)-463.0E-18                   (X_U3.75)-463.0E-18                       

(X_U3.76)    -.6204                   (X_U3.77)   -2.4437                       

(X_U3.78)   -2.8371                   (X_U3.79) 297.4E-06                       

(X_U3.80)   -5.2000                   (X_U3.81)    5.2000                       

(X_U3.82) 297.4E-06                   (X_U3.83)-463.0E-18                       

(X_U3.84)   -5.0000                   (X_U3.85)    5.0000                       

(X_U3.86) 296.4E-06                   (X_U3.87) 296.4E-06                       

(X_U4.21)   -4.9444                   (X_U4.22)    2.5127                       

(X_U4.23)    2.5124                   (X_U4.24)-500.6E-09                       

(X_U4.25)   -1.8750                   (X_U4.26) 500.0E-09                       

(X_U4.27)     .8000                   (X_U4.28)    5.3397                       

(X_U4.29)    5.4838                   (X_U4.30)    2.5127                       

(X_U4.31)-2.844E-12                   (X_U4.32)-2.843E-12                       

(X_U4.33)-4.756E-12                   (X_U4.34)-4.757E-12                       

(X_U4.35)    7.1606                   (X_U4.36)    7.1606                       

(X_U4.37)    3.3606                   (X_U4.38)    3.3606                       

(X_U4.39)  204.0900                   (X_U4.40)     .0265                       

(X_U4.41)  125.2200                   (X_U4.42)    2.5127                       

(X_U4.43)    1.2606                   (X_U4.44)  204.3300                       

(X_U4.45)  204.3500                   (X_U4.46)  128.3400                       

(X_U4.47)  219.5500                   (X_U4.48)   24.3950                       

(X_U4.49)   24.4100                   (X_U4.50)    4.9905                       

(X_U4.51) 43.62E-06                   (X_U4.52)     .0598                       

(X_U4.53)   80.0000                   (X_U4.54)  -80.0000                       

(X_U4.55)-479.8E-18                   (X_U4.56)-479.8E-18                       

(X_U4.57)    7.1606                   (X_U4.58)    3.3606                       

(X_U4.59)  400.0000                   (X_U4.60) -400.0000                       

(X_U4.61)    5.7388                   (X_U4.62)-479.8E-18                       

(X_U4.63)-479.8E-18                   (X_U4.64)-479.8E-18                       

(X_U4.65)-479.8E-18                   (X_U4.66)-479.8E-18                       

(X_U4.67)-479.8E-18                   (X_U4.68)    4.9903                       

(X_U4.69)    4.9903                   (X_U4.70)   -4.9444                       

(X_U4.71) 78.14E-06                   (X_U4.72)-479.8E-18                       

(X_U4.73) 78.14E-06                   (X_U4.74)-479.8E-18                       

(X_U4.75)-476.8E-18                   (X_U4.76)     .3730                       

(X_U4.77)    4.9905                   (X_U4.78)    5.2616                       

(X_U4.79)    2.5127                   (X_U4.80)   -5.2000                       

(X_U4.81)    5.2000                   (X_U4.82)    2.5127                       

(X_U4.83)-479.8E-18                   (X_U4.84)   -5.0000                       

(X_U4.85)    5.0000                   (X_U4.86)    2.5127                       

(X_U4.87)    2.5127                   (X_U1.MID)-505.1E-18                      

(X_U2.MID)-471.7E-18                  (X_U3.MID)-463.0E-18                      

(X_U4.MID)-479.8E-18                  (X_U1.ESDn)    2.7725                     

(X_U1.ESDp)    3.0251                 (X_U1.VCLP)    5.0756                     

(X_U2.ESDn)    2.5297                 (X_U2.ESDp)    5.0001                     

(X_U2.VCLP)    5.3274                 (X_U3.ESDn)     .0557                     

(X_U3.ESDp)-19.07E-09                 (X_U3.VCLP)   -2.8276                     

(X_U4.ESDn)    1.2606                 (X_U4.ESDp)    2.5124                     

(X_U4.VCLP)    5.2606                 (X_U1.CLAMP)    6.8945                    

(X_U1.SW_OL)-505.1E-18                (X_U1.VCC_B)    5.0000                    

(X_U1.VEE_B)   -5.0000                (X_U1.VIMON)     .0034                    

(X_U2.CLAMP)    7.2756                (X_U2.SW_OL)     .4388                    

(X_U2.VCC_B)    5.0000                (X_U2.VEE_B)   -5.0000                    

(X_U2.VIMON)     .4927                (X_U3.CLAMP)   -2.9008                    

(X_U3.SW_OL)-463.0E-18                (X_U3.VCC_B)    5.0000                    

(X_U3.VEE_B)   -5.0000                (X_U3.VIMON)    -.6186                    

(X_U4.CLAMP)    5.7388                (X_U4.SW_OL)-183.2E-18                    

(X_U4.VCC_B)    5.0000                (X_U4.VEE_B)   -5.0000                    

(X_U4.VIMON)     .3738                (X_U1.VOUT_S)    5.0001                   

(X_U1.VSENSE)    6.8945               (X_U1.Xe_n.3)    0.0000                   

(X_U1.Xe_n.4)    0.0000               (X_U1.Xe_n.5)    0.0000                   

(X_U1.Xe_n.6)    0.0000               (X_U1.Xe_n.7)     .8338                   

(X_U1.Xe_n.8)     .8338               (X_U2.VOUT_S)    4.9893                   

(X_U2.VSENSE)    7.2756               (X_U2.Xe_n.3)    0.0000                   

(X_U2.Xe_n.4)    0.0000               (X_U2.Xe_n.5)    0.0000                   

(X_U2.Xe_n.6)    0.0000               (X_U2.Xe_n.7)     .8338                   

(X_U2.Xe_n.8)     .8338               (X_U3.VOUT_S)   -2.4356                   

(X_U3.VSENSE)   -2.9008               (X_U3.Xe_n.3)    0.0000                   

(X_U3.Xe_n.4)    0.0000               (X_U3.Xe_n.5)    0.0000                   

(X_U3.Xe_n.6)    0.0000               (X_U3.Xe_n.7)     .8338                   

(X_U3.Xe_n.8)     .8338               (X_U4.VOUT_S)    4.9904                   

(X_U4.VSENSE)    5.7388               (X_U4.Xe_n.3)    0.0000                   

(X_U4.Xe_n.4)    0.0000               (X_U4.Xe_n.5)    0.0000                   

(X_U4.Xe_n.6)    0.0000               (X_U4.Xe_n.7)     .8338                   

(X_U4.Xe_n.8)     .8338               (X_U1.VCC_CLP)    4.9984                  

(X_U1.VEE_CLP)   -4.9499              (X_U1.Xi_nn.3)    0.0000                  

(X_U1.Xi_nn.4)    0.0000              (X_U1.Xi_nn.5)    0.0000                  

(X_U1.Xi_nn.6)    0.0000              (X_U1.Xi_nn.7)     .8338                  

(X_U1.Xi_nn.8)     .8338              (X_U1.Xi_np.3)    0.0000                  

(X_U1.Xi_np.4)    0.0000              (X_U1.Xi_np.5)    0.0000                  

(X_U1.Xi_np.6)    0.0000              (X_U1.Xi_np.7)     .8338                  

(X_U1.Xi_np.8)     .8338              (X_U2.VCC_CLP)    4.9877                  

(X_U2.VEE_CLP)   -4.9426              (X_U2.Xi_nn.3)    0.0000                  

(X_U2.Xi_nn.4)    0.0000              (X_U2.Xi_nn.5)    0.0000                  

(X_U2.Xi_nn.6)    0.0000              (X_U2.Xi_nn.7)     .8338                  

(X_U2.Xi_nn.8)     .8338              (X_U2.Xi_np.3)    0.0000                  

(X_U2.Xi_np.4)    0.0000              (X_U2.Xi_np.5)    0.0000                  

(X_U2.Xi_np.6)    0.0000              (X_U2.Xi_np.7)     .8338                  

(X_U2.Xi_np.8)     .8338              (X_U3.VCC_CLP)    4.9850                  

(X_U3.VEE_CLP)   -4.9407              (X_U3.Xi_nn.3)    0.0000                  

(X_U3.Xi_nn.4)    0.0000              (X_U3.Xi_nn.5)    0.0000                  

(X_U3.Xi_nn.6)    0.0000              (X_U3.Xi_nn.7)     .8338                  

(X_U3.Xi_nn.8)     .8338              (X_U3.Xi_np.3)    0.0000                  

(X_U3.Xi_np.4)    0.0000              (X_U3.Xi_np.5)    0.0000                  

(X_U3.Xi_np.6)    0.0000              (X_U3.Xi_np.7)     .8338                  

(X_U3.Xi_np.8)     .8338              (X_U4.VCC_CLP)    4.9903                  

(X_U4.VEE_CLP)   -4.9444              (X_U4.Xi_nn.3)    0.0000                  

(X_U4.Xi_nn.4)    0.0000              (X_U4.Xi_nn.5)    0.0000                  

(X_U4.Xi_nn.6)    0.0000              (X_U4.Xi_nn.7)     .8338                  

(X_U4.Xi_nn.8)     .8338              (X_U4.Xi_np.3)    0.0000                  

(X_U4.Xi_np.4)    0.0000              (X_U4.Xi_np.5)    0.0000                  

(X_U4.Xi_np.6)    0.0000              (X_U4.Xi_np.7)     .8338                  

(X_U4.Xi_np.8)     .8338              (X_U1.CL_CLAMP)    5.0755                 

(X_U2.CL_CLAMP)    5.3275             (X_U3.CL_CLAMP)   -2.8371                 

(X_U4.CL_CLAMP)    5.2616             (X_U1.CLAW_CLAMP)    5.0755               

(X_U1.XVOS_VCM.1)    3.0254           (X_U2.CLAW_CLAMP)    5.3275               

(X_U2.XVOS_VCM.1)    5.0004           (X_U3.CLAW_CLAMP)   -2.8371               

(X_U3.XVOS_VCM.1) 296.4E-06           (X_U4.CLAW_CLAMP)    5.2616               

(X_U4.XVOS_VCM.1)    2.5127           


  These voltages failed to converge:

    V(N00840)                 =     2.500V  \     3.025V
    V(N00550)                 =    -2.483V  \    -2.444V
    V(N00586)                 =    849.18V  \     1.261V
    V(VOUT)                   =    1.701KV  \     4.991V
    V(N00582)                 =    8.452mV  \    55.73mV
    V(N00578)                 =     2.500V  \     2.530V
    V(N00602)                 =     2.496V  \     2.512V
    V(N00870)                 =     2.517V  \     2.773V
    V(N00271)                 =     2.517V  \     5.000V
    V(X_U1.ESDn)              =     2.517V  \     2.773V
    V(X_U1.23)                =     2.500V  \     3.025V
    V(X_U1.38)                =   923.92mV  \     3.176V
    V(X_U1.VCLP)              =     2.824V  \     5.076V
    V(X_U1.58)                =   923.92mV  \     3.176V
    V(X_U1.37)                =   923.92mV  \     3.176V
    V(X_U1.36)                =     4.724V  \     6.976V
    V(X_U1.57)                =     4.724V  \     6.976V
    V(X_U1.35)                =     4.724V  \     6.976V
    V(X_U1.50)                =     2.517V  \     5.000V
    V(X_U1.28)                =   -2.479KV  \     6.729V
    V(X_U1.29)                =   -2.479KV  \     6.790V
    V(X_U1.ESDp)              =     2.500V  \     3.025V
    V(X_U1.39)                =     27.68V  \     56.33V
    V(X_U1.VSENSE)            =   -2.479KV  \     6.895V
    V(X_U1.CLAMP)             =   -2.479KV  \     6.895V
    V(X_U1.41)                =   -99.57mV  \     25.37V
    V(X_U1.40)                =    3.600mV  \    7.325mV
    V(X_U1.44)                =     27.69V  \     56.39V
    V(X_U1.45)                =     27.70V  \     56.39V
    V(X_U1.46)                =     27.70V  \     33.05V
    V(X_U1.47)                =     27.70V  \     61.06V
    V(X_U1.48)                =     3.077V  \     6.785V
    V(X_U1.49)                =     27.70V  \     6.792V
    V(X_U1.CL_CLAMP)          =     2.824V  \     5.076V
    V(X_U1.51)                =   198.07uV  \   739.66uV
    V(X_U1.52)                =    59.50mV  \    72.00mV
    V(X_U1.61)                =   -2.479KV  \     6.895V
    V(X_U1.71)                =    -2.482V  \    1.653mV
    V(X_U1.73)                =    -2.482V  \    1.653mV
    V(X_U1.76)                =    59.69nV  \    3.312mV
    V(X_U1.77)                =     2.517V  \     5.000V
    V(X_U1.VOUT_S)            =     2.517V  \     5.000V
    V(X_U1.VIMON)             =    59.69nV  \    3.387mV
    V(X_U1.78)                =     2.824V  \     5.076V
    V(X_U1.CLAW_CLAMP)        =     2.824V  \     5.076V
    V(X_U1.42)                =     2.516V  \     3.026V
    V(X_U1.79)                =     2.516V  \     3.026V
    V(X_U1.86)                =     2.516V  \     3.026V
    V(X_U1.82)                =     2.516V  \     3.026V
    V(X_U1.43)                =     2.517V  \     2.773V
    V(X_U1.87)                =     2.516V  \     3.026V
    V(X_U1.30)                =     2.515V  \     3.025V
    V(X_U2.ESDn)              =     2.500V  \     2.530V
    V(X_U2.23)                =     2.517V  \     5.000V
    V(X_U2.38)                =     5.916V  \     3.427V
    V(X_U2.VCLP)              =     7.816V  \     5.327V
    V(X_U2.58)                =     5.916V  \     3.427V
    V(X_U2.37)                =     5.916V  \     3.427V
    V(X_U2.36)                =      9.72V  \     7.227V
    V(X_U2.57)                =     11.42V  \     7.268V
    V(X_U2.35)                =     11.42V  \     7.268V
    V(X_U2.28)                =     11.44V  \     6.877V
    V(X_U2.29)                =     11.44V  \     7.021V
    V(X_U2.ESDp)              =     2.517V  \     5.000V
    V(X_U2.31)                =     1.700V  \    39.68mV
    V(X_U2.32)                =     1.700V  \    40.15mV
    V(X_U2.39)                =    254.38V  \    252.34V
    V(X_U2.VSENSE)            =     11.44V  \     7.276V
    V(X_U2.CLAMP)             =     11.44V  \     7.276V
    V(X_U2.41)                =     3.340V  \    247.15V
    V(X_U2.40)                =    33.08mV  \    32.81mV
    V(X_U2.44)                =    254.49V  \    252.01V
    V(X_U2.45)                =    254.52V  \    252.03V
    V(X_U2.46)                =    254.52V  \    143.15V
    V(X_U2.47)                =    254.52V  \    273.81V
    V(X_U2.48)                =     28.28V  \     30.42V
    V(X_U2.49)                =    254.52V  \     30.45V
    V(X_U2.CL_CLAMP)          =     7.816V  \     5.328V
    V(X_U2.51)                =   199.38uV  \   397.17uV
    V(X_U2.52)                =    59.89mV  \   119.00mV
    V(X_U2.61)                =     11.44V  \     7.276V
    V(X_U2.71)                =    3.622mV  \    1.550mV
    V(X_U2.73)                =    3.622mV  \    1.550mV
    V(X_U2.SW_OL)             =     1.000V  \   438.75mV
    V(X_U2.75)                =     1.000V  \   994.44mV
    V(X_U2.76)                =   498.70mV  \   493.65mV
    V(X_U2.VIMON)             =   498.70mV  \   492.66mV
    V(X_U2.78)                =     7.816V  \     5.328V
    V(X_U2.CLAW_CLAMP)        =     7.816V  \     5.328V
    V(X_U2.42)                =     2.533V  \     5.001V
    V(X_U2.79)                =     2.533V  \     5.001V
    V(X_U2.86)                =     2.533V  \     5.001V
    V(X_U2.82)                =     2.533V  \     5.001V
    V(X_U2.43)                =     2.500V  \     2.530V
    V(X_U2.87)                =     2.533V  \     5.001V
    V(X_U2.30)                =     2.533V  \     5.001V
    V(X_U3.ESDn)              =    8.452mV  \    55.73mV
    V(X_U3.38)                =   -384.12V  \    -4.728V
    V(X_U3.VCLP)              =   -382.22V  \    -2.828V
    V(X_U3.58)                =   -384.12V  \    -4.728V
    V(X_U3.37)                =   -384.12V  \    -4.728V
    V(X_U3.36)                =   -380.32V  \  -927.59mV
    V(X_U3.57)                =   -380.32V  \  -927.59mV
    V(X_U3.35)                =   -380.32V  \  -927.59mV
    V(X_U3.50)                =    -2.483V  \    -2.444V
    V(X_U3.28)                =   -382.22V  \    -2.837V
    V(X_U3.29)                =   -382.22V  \    -2.864V
    V(X_U3.39)                =   -34.19KV  \   -275.03V
    V(X_U3.VSENSE)            =   -382.22V  \    -2.901V
    V(X_U3.CLAMP)             =   -382.22V  \    -2.901V
    V(X_U3.41)                =   -15.35mV  \    -5.543V
    V(X_U3.40)                =    -4.447V  \   -35.76mV
    V(X_U3.44)                =   -34.21KV  \   -274.12V
    V(X_U3.45)                =   -34.21KV  \   -274.15V
    V(X_U3.46)                =   -34.21KV  \   -160.31V
    V(X_U3.47)                =   -34.21KV  \   -296.92V
    V(X_U3.48)                =   -3.801KV  \    -32.99V
    V(X_U3.49)                =   -34.21KV  \    -35.42V
    V(X_U3.CL_CLAMP)          =   -382.22V  \    -2.837V
    V(X_U3.61)                =   -382.22V  \    -2.901V
    V(X_U3.68)                =     3.132V  \     4.985V
    V(X_U3.69)                =     3.132V  \     4.985V
    V(X_U3.21)                =    -3.669V  \    -4.941V
    V(X_U3.70)                =    -3.669V  \    -4.941V
    V(X_U3.VCC_CLP)           =     3.132V  \     4.985V
    V(X_U3.VEE_CLP)           =    -3.669V  \    -4.941V
    V(X_U3.76)                =    -85.42V  \  -620.37mV
    V(X_U3.77)                =    -2.483V  \    -2.444V
    V(X_U3.VOUT_S)            =    -2.483V  \    -2.436V
    V(X_U3.VIMON)             =    -85.42V  \  -618.64mV
    V(X_U3.78)                =   -382.22V  \    -2.837V
    V(X_U3.CLAW_CLAMP)        =   -382.22V  \    -2.837V
    V(X_U3.42)                =    8.298mV  \   297.38uV
    V(X_U3.79)                =    8.298mV  \   297.38uV
    V(X_U3.86)                =    8.297mV  \   296.38uV
    V(X_U3.82)                =    8.298mV  \   297.38uV
    V(X_U3.43)                =    8.452mV  \    55.73mV
    V(X_U3.87)                =    8.297mV  \   296.38uV
    V(X_U3.30)                =    8.297mV  \   296.38uV
    V(X_U4.ESDn)              =    849.18V  \     1.261V
    V(X_U4.23)                =     2.496V  \     2.512V
    V(X_U4.38)                =    2.285KV  \     3.361V
    V(X_U4.VCLP)              =    2.287KV  \     5.261V
    V(X_U4.58)                =    2.285KV  \     3.361V
    V(X_U4.37)                =    2.285KV  \     3.361V
    V(X_U4.36)                =    2.289KV  \     7.161V
    V(X_U4.57)                =    2.289KV  \     7.161V
    V(X_U4.35)                =    2.289KV  \     7.161V
    V(X_U4.50)                =    1.701KV  \     4.991V
    V(X_U4.28)                =    1.700MV  \     5.340V
    V(X_U4.29)                =    1.700MV  \     5.484V
    V(X_U4.ESDp)              =     2.496V  \     2.512V
    V(X_U4.31)                =    3.395uV  \   -2.844pV
    V(X_U4.32)                =    3.395uV  \   -2.843pV
    V(X_U4.33)                =   -3.395uV  \   -4.756pV
    V(X_U4.34)                =   -3.395uV  \   -4.757pV
    V(X_U4.39)                =    52.78KV  \    204.09V
    V(X_U4.VSENSE)            =    1.700MV  \     5.739V
    V(X_U4.CLAMP)             =    1.700MV  \     5.739V
    V(X_U4.41)                =   -84.67KV  \    125.22V
    V(X_U4.40)                =     6.863V  \    26.54mV
    V(X_U4.44)                =    52.80KV  \    204.33V
    V(X_U4.45)                =    52.80KV  \    204.35V
    V(X_U4.46)                =    52.80KV  \    128.34V
    V(X_U4.47)                =    52.80KV  \    219.55V
    V(X_U4.48)                =    5.867KV  \     24.40V
    V(X_U4.49)                =    52.80KV  \     24.41V
    V(X_U4.CL_CLAMP)          =    2.287KV  \     5.262V
    V(X_U4.51)                =   197.72uV  \    43.62uV
    V(X_U4.52)                =    59.40mV  \    59.80mV
    V(X_U4.61)                =    1.700MV  \     5.739V
    V(X_U4.68)                =     3.138V  \     4.990V
    V(X_U4.69)                =     3.138V  \     4.990V
    V(X_U4.21)                =    -3.673V  \    -4.944V
    V(X_U4.70)                =    -3.673V  \    -4.944V
    V(X_U4.VCC_CLP)           =     3.138V  \     4.990V
    V(X_U4.VEE_CLP)           =    -3.673V  \    -4.944V
    V(X_U4.71)                =    1.698KV  \    78.14uV
    V(X_U4.73)                =    1.698KV  \    78.14uV
    V(X_U4.76)                =     85.17V  \   372.99mV
    V(X_U4.77)                =    1.701KV  \     4.991V
    V(X_U4.VOUT_S)            =    1.701KV  \     4.990V
    V(X_U4.VIMON)             =     85.17V  \   373.77mV
    V(X_U4.78)                =    2.287KV  \     5.262V
    V(X_U4.CLAW_CLAMP)        =    2.287KV  \     5.262V
    V(X_U4.43)                =    849.18V  \     1.261V
    V(X_U1.22)                =     2.500V  \     3.025V
    V(X_U1.XVOS_VCM.1)        =     2.516V  \     3.025V
    V(X_U2.22)                =     2.517V  \     5.000V
    V(X_U2.XVOS_VCM.1)        =     2.533V  \     5.000V
    V(X_U3.XVOS_VCM.1)        =    11.10mV  \   296.38uV
    V(X_U4.22)                =     2.496V  \     2.513V

  These supply currents failed to converge:

    I(X_U1.E5)                =   -2.517pA  \  -222.83nA
    I(X_U1.E4)                =         0A  \   665.08nA
    I(X_U1.E1)                =  -231.02pA  \    1.252uA
    I(X_U2.E5)                =   -4.991pA  \  -260.66nA
    I(X_U2.E4)                =         0A  \   -1.535uA
    I(X_U2.E1)                =    30.15pA  \   -1.344uA
    I(X_U3.E5)                =    2.483pA  \    81.05uA
    I(X_U3.E4)                =         0A  \    95.40uA
    I(X_U3.E1)                =    9.294pA  \    1.092uA
    I(X_U4.E5)                =   -1.701nA  \  -652.81nA
    I(X_U4.E4)                =         0A  \   -10.24uA
    I(X_U4.E1)                =    3.285nA  \  -205.97nA
    I(X_U2.Xe_n.E3)           =    15.06pA  \    20.06pA
    I(V_V1)                   =   -85.94mA  \  -976.56uA
    I(V_V10)                  =   -85.90mA  \   -1.099mA
    I(V_V11)                  =    2.500uA  \    3.025uA
    I(X_U1.V11)               =   -4.960nA  \    7.438pA
    I(X_U1.V12)               =   -4.968nA  \  -161.96fA
    I(X_U1.V4)                =    59.69pA  \    3.312uA
    I(X_U2.V11)               =    11.04pA  \    7.697pA
    I(X_U2.V12)               =     1.700A  \    40.15mA
    I(X_U2.V4)                =   498.70uA  \   493.65uA
    I(X_U3.V4)                =   -85.42mA  \  -620.37uA
    I(X_U4.V11)               =    3.395uA  \    4.756pA
    I(X_U4.V12)               =    3.395uA  \   -2.842pA
    I(X_U4.V4)                =    85.17mA  \   372.99uA
    I(X_U1.H1)                = -59.69e-21A  \   748.44nA
    I(X_U2.H3)                =         0A  \   -4.638uA
    I(X_U2.H1)                =  -498.70fA  \    -9.88uA
    I(X_U3.H1)                =    85.42pA  \    17.28uA
    I(X_U4.H1)                =   -85.17pA  \    7.758uA

  These devices failed to converge:
    X_U1.XVOS_VCM.E1 X_U1.XVOS_VCM.E2 X_U2.XVOS_VCM.E1 X_U2.XVOS_VCM.E2 
    X_U3.XVOS_VCM.E1 X_U3.XVOS_VCM.E2 X_U4.XVOS_VCM.E1 X_U4.XVOS_VCM.E2 
    X_U1.XGR_AMP.GVO- X_U1.XCLAW_AMP.GVO+ X_U1.XCLAW_SRC.G1 X_U2.XVCCS_LIM_2.G1 
    X_U3.XCL_AMP.GVO- X_U4.XVCCS_LIM_ZO.G1 X_U4.XVCCS_LIM_2.G1 
    X_U4.XCL_AMP.GVO+ X_U4.XGR_AMP.GVO+ X_U4.XCLAW_SRC.G1 

**** Interrupt ****
**** Param: RELTOL = 0.001
**** Param: ABSTOL = 1e-12
**** Param: VNTOL = 1e-06
**** Param: GMIN = 1e-12
**** Param: TSTOP = 0.01
**** Param: TMAX = 0
**** Param: ITL1 = 150
**** Param: ITL2 = 20
**** Param: ITL4 = 10
**** Param: AutoConverge = 0
**** Param: AutoConverge.ITL1 = 1000
**** Param: AutoConverge.ITL2 = 1000
**** Param: AutoConverge.ITL4 = 1000
**** Param: AutoConverge.RELTOL = 0.05
**** Param: AutoConverge.ABSTOL = 0.001
**** Param: AutoConverge.VNTOL = 0.001
**** Param: AutoConverge.PIVTOL = 1e-10
**** Param: ADVCONV = 1
**** Param: Current_Simulation = 0
**** Param: METHOD = 0
**** Param: TRTOL = 7
**** Param: STEPGMIN = 0
**** Param: GMINSTEPS = 0
**** Param: ITL6 = 0
**** Param: NOSTEPDEP = 0
**** Param: PTRANSTEP = 0
**** Param: GMINSRC = 0
**** Param: PSEUDOTRAN = 0
**** Param: NOSTEPSRC = 0

          JOB ABORTED

**** 11/17/25 15:00:33 **** PSpice 23.1.0 (30 January 2024) *** ID# 0 ********

 ** Profile: "SCHEMATIC1-bias_point"  [ c:\users\mshar\documents\capstone\simulation\software-defined instrumentation amplifier\softw


 ****     JOB STATISTICS SUMMARY


******************************************************************************



  Total job time (using Solver 1)   =      106.45
