LTspice 24.0.12 for Windows
Circuit: * C:\Users\mshar\Documents\capstone\simulation\Draft1.asc
Start Time: Wed Sep 10 11:59:36 2025
solver = Normal
Maximum thread count: 12
tnom = 27
temp = 27
method = modified trap
Direct Newton iteration for .op point succeeded.
Semiconductor Device Operating Points:
                        --- Diodes ---
Name:    d:u1:1      d:u1:2
Model:    u1:x        u1:x
Id:     -5.00e-12   -1.96e-15
Vd:     -5.00e+00   -1.96e-03
Req:     1.00e-12    1.00e-12
CAP:     0.00e+00    0.00e+00


Total elapsed time: 0.086 seconds.

