LTspice 24.1.10 for Windows
Circuit: C:\Users\mshar\Documents\capstone\simulation\Draft2.net
Start Time: Wed Nov  5 14:42:25 2025
solver = Normal
Maximum thread count: 12
tnom = 27
temp = 27
method = modified trap
WARNING: Node n006 is floating.
WARNING: Node n005 is floating.

.OP point found by inspection.
Total elapsed time: 0.155 seconds.

Files loaded:
C:\Users\mshar\Documents\capstone\simulation\Draft2.net

