LTspice 24.1.10 for Windows
Circuit: C:\Users\mshar\Documents\capstone\simulation\Draft4.net
Start Time: Wed Nov  5 15:03:50 2025
solver = Normal
Maximum thread count: 12
tnom = 27
temp = 27
method = modified trap
WARNING: Node n004 is floating.

.OP point found by inspection.
Total elapsed time: 0.162 seconds.

Files loaded:
C:\Users\mshar\Documents\capstone\simulation\Draft4.net

