LTspice 24.0.12 for Windows
Circuit: * C:\Users\mshar\Documents\capstone\simulation\SensorOffsetAmplifier.asc
Start Time: Sat Aug  9 20:59:40 2025
solver = Normal
Maximum thread count: 12
tnom = 27
temp = 27
method = modified trap
Direct Newton iteration for .op point succeeded.
Semiconductor Device Operating Points:
                        --- Diodes ---
Name:    d:u1:1      d:u1:2
Model:    u1:x        u1:x
Id:     -7.91e-12   -2.21e-11
Vd:     -7.90e+00   -2.21e+01
Req:     1.00e-12    1.00e-12
CAP:     0.00e+00    0.00e+00


Total elapsed time: 0.059 seconds.

