LTspice 24.0.12 for Windows
Circuit: * C:\Users\mshar\Documents\capstone\simulation\turbiditySensor.asc
Start Time: Mon Apr 21 00:37:48 2025
solver = Normal
Maximum thread count: 12
tnom = 27
temp = 27
method = modified trap
Direct Newton iteration failed to find .op point.  (Use ".option noopiter" to skip.)
Starting Gmin stepping
Gmin = 10
Gmin = 1.07374
Gmin = 0.115292
Gmin = 0.0123794
Gmin = 0.00132923
vernier = 0.5
Gmin = 0.000275318
vernier = 0.666667
vernier = 0.888888
Gmin = 6.27402e-05
vernier = 1
Gmin = 7.53781e-06
vernier = 0.5
vernier = 0.25
vernier = 0.125
vernier = 0.0625
Gmin = 6.97555e-06
vernier = 0.0833333
vernier = 0.111111
Gmin = 5.52398e-06
vernier = 0.148148
vernier = 0.197531
Gmin = 3.81787e-06
vernier = 0.263374
Gmin = 2.14746e-06
vernier = 0.351165
vernier = 0.46822
Gmin = 8.32439e-07
vernier = 0.624294
vernier = 0.832392
Gmin = 1.91464e-07
vernier = 1
Gmin = 2.35623e-08
Gmin = 2.52998e-09
Gmin = 2.71655e-10
Gmin = 2.91687e-11
Gmin = 3.13197e-12
Gmin = 3.36292e-13
Gmin = 0
Gmin stepping succeeded in finding the operating point.

Total elapsed time: 3.567 seconds.

