LTspice 24.0.12 for Windows
Circuit: * C:\Users\mshar\Documents\capstone\simulation\turbiditySensor.asc
Start Time: Sun Apr 20 23:09:51 2025
solver = Normal
Maximum thread count: 12
tnom = 27
temp = 27
method = modified trap
Direct Newton iteration failed to find .op point.  (Use ".option noopiter" to skip.)
Starting Gmin stepping
Increasing initial diagonal Gmin to 100
Gmin = 100
Gmin = 10.7374
Gmin = 1.15292
Gmin = 0.123794
Gmin = 0.0132923
Gmin = 0.00142725
vernier = 0.5
Gmin = 0.00029562
vernier = 0.666667
vernier = 0.888888
Gmin = 6.73668e-05
vernier = 1
Gmin = 8.09366e-06
Gmin = 8.6905e-07
Gmin = 9.33136e-08
Gmin = 1.00195e-08
Gmin = 1.07583e-09
Gmin = 1.15517e-10
Gmin = 1.24035e-11
Gmin = 1.33182e-12
Gmin = 1.43003e-13
Gmin = 0
Gmin stepping succeeded in finding the operating point.

Total elapsed time: 0.374 seconds.

